&HEAD CHID='cone_geom_vv_6_50', TITLE='Cone Calorimeter simulation setup vertical - example PMMA with 6mm thickness and 50kW/m2 heat flux'  /

MESH ID='MESH01', IJK=45,45,45, XB=-0.15,0.15,-0.2,0.1,-0.15,0.15/
&MESH ID='MESH01', IJK=15,45,15, XB=-0.15,-0.05,-0.2,0.1,-0.15,-0.05/
&MESH ID='MESH02', IJK=15,45,15, XB=-0.15,-0.05,-0.2,0.1,-0.05, 0.05/
&MESH ID='MESH03', IJK=15,45,15, XB=-0.15,-0.05,-0.2,0.1, 0.05, 0.15/
&MESH ID='MESH04', IJK=15,45,15, XB=-0.05,0.05,-0.2,0.1,-0.15,-0.05/
&MESH ID='MESH05', IJK=15,45,15, XB=-0.05,0.05,-0.2,0.1,-0.05, 0.05/
&MESH ID='MESH06', IJK=15,45,15, XB=-0.05,0.05,-0.2,0.1,0.05, 0.15/
&MESH ID='MESH07', IJK=15,45,15, XB=0.05,0.15,-0.2,0.1,-0.15,-0.05/
&MESH ID='MESH08', IJK=15,45,15, XB=0.05,0.15,-0.2,0.1,-0.05, 0.05/
&MESH ID='MESH09', IJK=15,45,15, XB=0.05,0.15,-0.2,0.1,0.05, 0.15/

&TIME T_BEGIN = -5, T_END= 1200/
&DUMP NFRAMES=1205, DT_RESTART=300, DT_BNDF=5, DT_SLCF=10, DT_DEVC=1 /

&MISC SIMULATION_MODE='LES' RESTART=F  BNDF_DEFAULT=F / 
&RADI NUMBER_RADIATION_ANGLES=300, QR_CLIP = 1, C_MIN = 0.1, C_MAX = 100 /

&SPEC ID='MMA', FORMULA='C5O2H8', RADCAL_ID='MMA', RAMP_CP='MMA CP'/
&RAMP ID='MMA CP', T=114, F=1.48 / https://www.chemeo.com/cid/57-301-4/Methyl-methacrylate
&RAMP ID='MMA CP', T=300, F=1.90 /
&REAC FUEL='MMA', SOOT_YIELD=0.022, CO_YIELD=0.010, RADIATIVE_FRACTION=0.33, HEAT_OF_COMBUSTION=25610 / entnommen aus https://github.com/firemodels/fds/blob/master/Validation/NIST_NRC_Parallel_Panels/FDS_Input_Files/PMMA_60_kW_1_cm.fds


***** Open Vents ********************

&VENT MB = 'XMIN',SURF_ID = 'OPEN'/
&VENT MB = 'XMAX',SURF_ID = 'OPEN'/
&VENT MB = 'YMIN',SURF_ID = 'OPEN'/
&VENT MB = 'YMAX',SURF_ID = 'OPEN'/
&VENT MB = 'ZMIN',SURF_ID = 'OPEN'/
&VENT MB = 'ZMAX',SURF_ID = 'OPEN'/

################################
#### Materials and Surfaces ####
################################

***** Surfaces ********************

https://nvlpubs.nist.gov/nistpubs/Legacy/IR/nbsir82-2611.pdf
From Babrauskas's report:
75 kW/m2: 841 ˚C  emis: 1.359
50 kW/m2: 744 ˚C  emis: 1.276
25 kW/m2: 592 ˚C  emis: 1.198
Estimated:
65 kW/m2: 804 ˚C

estimated:
25 kW/m² -> 634 °C
50 kW/m² -> 804 °C
75 kW/m² -> 918 °C

&SURF ID         = 'ConeHeater'
      RGB        = 255,31,5
      EMISSIVITY = 0.9
      TMP_FRONT  = 804
      RAMP_T     = 'CONE' /

&RAMP ID='CONE', T=-1.0, F=0/
&RAMP ID='CONE', T=0, F=1/

&MATL ID='STEEL' FYI='Eurocode 3' DENSITY=7850.0
      CONDUCTIVITY_RAMP='STEEL_CONDUCTIVITY_RAMP'
      SPECIFIC_HEAT_RAMP='STEEL_SPECIFIC_HEAT_RAMP' /
&RAMP ID='STEEL_SPECIFIC_HEAT_RAMP' T=0.0 F=0.425 /
&RAMP ID='STEEL_SPECIFIC_HEAT_RAMP' T=20.0 F=0.439802 /
&RAMP ID='STEEL_SPECIFIC_HEAT_RAMP' T=100.0 F=0.48762 /
&RAMP ID='STEEL_SPECIFIC_HEAT_RAMP' T=200.0 F=0.52976 /
&RAMP ID='STEEL_SPECIFIC_HEAT_RAMP' T=300.0 F=0.56474 /
&RAMP ID='STEEL_SPECIFIC_HEAT_RAMP' T=400.0 F=0.60588 /
&RAMP ID='STEEL_SPECIFIC_HEAT_RAMP' T=500.0 F=0.6665 /
&RAMP ID='STEEL_SPECIFIC_HEAT_RAMP' T=600.0 F=0.75992 /
&RAMP ID='STEEL_SPECIFIC_HEAT_RAMP' T=600.01 F=0.760224 /
&RAMP ID='STEEL_SPECIFIC_HEAT_RAMP' T=620.0 F=0.776186 /
&RAMP ID='STEEL_SPECIFIC_HEAT_RAMP' T=640.0 F=0.798673 /
&RAMP ID='STEEL_SPECIFIC_HEAT_RAMP' T=660.0 F=0.832692 /
&RAMP ID='STEEL_SPECIFIC_HEAT_RAMP' T=680.0 F=0.890172 /
&RAMP ID='STEEL_SPECIFIC_HEAT_RAMP' T=700.0 F=1.008158 /
&RAMP ID='STEEL_SPECIFIC_HEAT_RAMP' T=720.0 F=1.388333 /
&RAMP ID='STEEL_SPECIFIC_HEAT_RAMP' T=735.0 F=5.0 /
&RAMP ID='STEEL_SPECIFIC_HEAT_RAMP' T=735.01 F=4.98889 /
&RAMP ID='STEEL_SPECIFIC_HEAT_RAMP' T=740.0 F=2.525 /
&RAMP ID='STEEL_SPECIFIC_HEAT_RAMP' T=760.0 F=1.159483 /
&RAMP ID='STEEL_SPECIFIC_HEAT_RAMP' T=780.0 F=0.908673 /
&RAMP ID='STEEL_SPECIFIC_HEAT_RAMP' T=800.0 F=0.803261 /
&RAMP ID='STEEL_SPECIFIC_HEAT_RAMP' T=820.0 F=0.745225 /
&RAMP ID='STEEL_SPECIFIC_HEAT_RAMP' T=840.0 F=0.708486 /
&RAMP ID='STEEL_SPECIFIC_HEAT_RAMP' T=860.0 F=0.68314 /
&RAMP ID='STEEL_SPECIFIC_HEAT_RAMP' T=880.0 F=0.664597 /
&RAMP ID='STEEL_SPECIFIC_HEAT_RAMP' T=900.0 F=0.650444 /
&RAMP ID='STEEL_SPECIFIC_HEAT_RAMP' T=900.01 F=0.65 /
&RAMP ID='STEEL_SPECIFIC_HEAT_RAMP' T=1000.0 F=0.65 /
&RAMP ID='STEEL_SPECIFIC_HEAT_RAMP' T=1100.0 F=0.65 /
&RAMP ID='STEEL_SPECIFIC_HEAT_RAMP' T=1200.0 F=0.65 /
&RAMP ID='STEEL_CONDUCTIVITY_RAMP' T=0.0 F=54.0 /
&RAMP ID='STEEL_CONDUCTIVITY_RAMP' T=20.0 F=53.334 /
&RAMP ID='STEEL_CONDUCTIVITY_RAMP' T=100.0 F=50.67 /
&RAMP ID='STEEL_CONDUCTIVITY_RAMP' T=200.0 F=47.34 /
&RAMP ID='STEEL_CONDUCTIVITY_RAMP' T=300.0 F=44.01 /
&RAMP ID='STEEL_CONDUCTIVITY_RAMP' T=400.0 F=40.68 /
&RAMP ID='STEEL_CONDUCTIVITY_RAMP' T=500.0 F=37.35 /
&RAMP ID='STEEL_CONDUCTIVITY_RAMP' T=600.0 F=34.02 /
&RAMP ID='STEEL_CONDUCTIVITY_RAMP' T=700.0 F=30.69 /
&RAMP ID='STEEL_CONDUCTIVITY_RAMP' T=800.0 F=27.36 /
&RAMP ID='STEEL_CONDUCTIVITY_RAMP' T=900.0 F=27.3 /
&RAMP ID='STEEL_CONDUCTIVITY_RAMP' T=1000.0 F=27.3 /
&RAMP ID='STEEL_CONDUCTIVITY_RAMP' T=1100.0 F=27.3 /
&RAMP ID='STEEL_CONDUCTIVITY_RAMP' T=1200.0 F=27.3 /

# with StainlessSteel in heater geometry interactions that lead to cancellation
SURF ID='StainlessSteel' 
      RGB=88,86,102 
      BACKING='EXPOSED' 
      MATL_ID(1,1)='STEEL'
      THICKNESS(1)=0.002 
      MATL_MASS_FRACTION(1,1)=1.0 /

&SURF ID='StainlessSteel' RGB=88,86,102 /

&MATL ID = 'PMMA', DENSITY = 1139.2407407407409, CONDUCTIVITY_RAMP = 'k_PMMA',
      SPECIFIC_HEAT_RAMP = 'cp_PMMA', EMISSIVITY = 0.96, ABSORPTION_COEFFICIENT = 2870 /

&RAMP ID='k_PMMA', T= 20., F=0.160 /
&RAMP ID='k_PMMA', T=122., F=0.160 /
&RAMP ID='k_PMMA', T=500., F=0.015 /

&RAMP ID='cp_PMMA', T= 20., F=1.05 /
&RAMP ID='cp_PMMA', T=122., F=1.90 /
&RAMP ID='cp_PMMA', T=500., F=3.22 /

MATL ID            = 'PROMATECT'
      EMISSIVITY    = 0.9
      DENSITY       = 450.
      SPECIFIC_HEAT = 0.95
      CONDUCTIVITY_RAMP = 'k_PROMAT LS' /

RAMP ID='k_PROMAT LS', T= 20., F=0.08 /
RAMP ID='k_PROMAT LS', T=200., F=0.10 /
RAMP ID='k_PROMAT LS', T=400., F=0.11 /

&MATL ID = 'Backing', DENSITY = 340, CONDUCTIVITY_RAMP = 'cond_fb', SPECIFIC_HEAT = 1.1 /

&RAMP ID = 'cond_fb', T = 000., F = 0.0462 / extrapoliert (Exponentialfunktion)
&RAMP ID = 'cond_fb', T = 200., F = 0.0611 / extrapoliert (Exponentialfunktion)
&RAMP ID = 'cond_fb', T = 400., F = 0.082 /
&RAMP ID = 'cond_fb', T = 600., F = 0.105 /
&RAMP ID = 'cond_fb', T = 800., F = 0.140 /
&RAMP ID = 'cond_fb', T = 1000, F = 0.189 /

##################
#### Geometry ####
##################

*** Specimen ***

VENT SURF_ID='StainlessSteel', XB=-0.05,0.05,-0.05,0.05,0.0,0.0/ Sample
  
&SURF ID                      = 'PMMA_CN',
      FYI                     = 'Parameter from Cone_C5_PMMACN_h_rep99',
      RGB                     = 0,0,0 ,
      CELL_SIZE_FACTOR        = 1.0,
      STRETCH_FACTOR(1:1)     = 1.0,
      BACKING                 = 'EXPOSED',
      THICKNESS(1:2)          = 0.006, 0.042,
      MATL_ID(1,1:1)          = 'PMMA',
      MATL_ID(2,1:1)          = 'Backing',
      HRRPUA                  = 1.0,
      RAMP_Q                  = 'CONE_6_25', 'CONE_6_75', 'CONE_10_25', 'CONE_10_50', 'CONE_10_75',
      REFERENCE_HEAT_FLUX     = 25,75,25,50,75,
      REFERENCE_THICKNESS     = 0.006, 0.006, 0.01, 0.01, 0.01,
      IGNITION_TEMPERATURE    = 340.7745079335275,
      HEAT_OF_VAPORIZATION    = 2029.3588585067885 /

&SURF ID                      = 'PMMA_back',
      COLOR                   = 'BEIGE',
      BACKING                 = 'EXPOSED',
      THICKNESS(1:2)          = 0.042, 0.006,
      MATL_ID(1,1:1)          = 'Backing',
      MATL_ID(2,1:1)          = 'PMMA' /

&OBST XB = -0.05,0.05, 0.0, 0.04, -0.05,0.05, SURF_ID6='StainlessSteel', 'StainlessSteel','PMMA_CN','StainlessSteel','StainlessSteel', 'StainlessSteel' BNDF_OBST=.TRUE., /SURF_ID6 = 'INERT','INERT','PMMA_CN','INERT','INERT','INERT' / BNDF_OBST=.TRUE.,BNDF_FACE(2)=.TRUE.,

&RAMP ID = 'CONE_6_25', T = 0.000, F = 0.000 / PMMA_CN_6mm_Vertical
&RAMP ID = 'CONE_6_25', T = 0.100, F = 237.605 / PMMA_CN_6mm_Vertical
&RAMP ID = 'CONE_6_25', T = 2.300, F = 258.732 / PMMA_CN_6mm_Vertical
&RAMP ID = 'CONE_6_25', T = 6.700, F = 285.691 / PMMA_CN_6mm_Vertical
&RAMP ID = 'CONE_6_25', T = 10.900, F = 300.661 / PMMA_CN_6mm_Vertical
&RAMP ID = 'CONE_6_25', T = 14.000, F = 306.662 / PMMA_CN_6mm_Vertical
&RAMP ID = 'CONE_6_25', T = 23.400, F = 317.035 / PMMA_CN_6mm_Vertical
&RAMP ID = 'CONE_6_25', T = 31.800, F = 319.076 / PMMA_CN_6mm_Vertical
&RAMP ID = 'CONE_6_25', T = 41.900, F = 333.866 / PMMA_CN_6mm_Vertical
&RAMP ID = 'CONE_6_25', T = 64.000, F = 342.331 / PMMA_CN_6mm_Vertical
&RAMP ID = 'CONE_6_25', T = 74.100, F = 351.604 / PMMA_CN_6mm_Vertical
&RAMP ID = 'CONE_6_25', T = 101.100, F = 360.910 / PMMA_CN_6mm_Vertical
&RAMP ID = 'CONE_6_25', T = 112.000, F = 372.579 / PMMA_CN_6mm_Vertical
&RAMP ID = 'CONE_6_25', T = 120.600, F = 374.152 / PMMA_CN_6mm_Vertical
&RAMP ID = 'CONE_6_25', T = 135.900, F = 384.464 / PMMA_CN_6mm_Vertical
&RAMP ID = 'CONE_6_25', T = 146.200, F = 386.249 / PMMA_CN_6mm_Vertical
&RAMP ID = 'CONE_6_25', T = 157.200, F = 399.561 / PMMA_CN_6mm_Vertical
&RAMP ID = 'CONE_6_25', T = 174.300, F = 402.836 / PMMA_CN_6mm_Vertical
&RAMP ID = 'CONE_6_25', T = 181.900, F = 412.610 / PMMA_CN_6mm_Vertical
&RAMP ID = 'CONE_6_25', T = 191.300, F = 417.809 / PMMA_CN_6mm_Vertical
&RAMP ID = 'CONE_6_25', T = 199.000, F = 429.215 / PMMA_CN_6mm_Vertical
&RAMP ID = 'CONE_6_25', T = 206.400, F = 432.083 / PMMA_CN_6mm_Vertical
&RAMP ID = 'CONE_6_25', T = 215.600, F = 440.290 / PMMA_CN_6mm_Vertical
&RAMP ID = 'CONE_6_25', T = 236.300, F = 468.002 / PMMA_CN_6mm_Vertical
&RAMP ID = 'CONE_6_25', T = 241.600, F = 469.361 / PMMA_CN_6mm_Vertical
&RAMP ID = 'CONE_6_25', T = 255.500, F = 492.948 / PMMA_CN_6mm_Vertical
&RAMP ID = 'CONE_6_25', T = 260.700, F = 506.399 / PMMA_CN_6mm_Vertical
&RAMP ID = 'CONE_6_25', T = 264.400, F = 511.991 / PMMA_CN_6mm_Vertical
&RAMP ID = 'CONE_6_25', T = 267.000, F = 514.812 / PMMA_CN_6mm_Vertical
&RAMP ID = 'CONE_6_25', T = 271.300, F = 514.554 / PMMA_CN_6mm_Vertical
&RAMP ID = 'CONE_6_25', T = 286.400, F = 535.986 / PMMA_CN_6mm_Vertical
&RAMP ID = 'CONE_6_25', T = 294.100, F = 540.550 / PMMA_CN_6mm_Vertical
&RAMP ID = 'CONE_6_25', T = 296.600, F = 539.516 / PMMA_CN_6mm_Vertical
&RAMP ID = 'CONE_6_25', T = 301.200, F = 530.195 / PMMA_CN_6mm_Vertical
&RAMP ID = 'CONE_6_25', T = 322.100, F = 443.647 / PMMA_CN_6mm_Vertical
&RAMP ID = 'CONE_6_25', T = 335.800, F = 403.370 / PMMA_CN_6mm_Vertical
&RAMP ID = 'CONE_6_25', T = 349.100, F = 348.266 / PMMA_CN_6mm_Vertical
&RAMP ID = 'CONE_6_25', T = 360.600, F = 304.582 / PMMA_CN_6mm_Vertical
&RAMP ID = 'CONE_6_25', T = 374.000, F = 242.219 / PMMA_CN_6mm_Vertical
&RAMP ID = 'CONE_6_25', T = 380.800, F = 218.551 / PMMA_CN_6mm_Vertical
&RAMP ID = 'CONE_6_25', T = 403.900, F = 162.684 / PMMA_CN_6mm_Vertical
&RAMP ID = 'CONE_6_25', T = 419.200, F = 138.749 / PMMA_CN_6mm_Vertical
&RAMP ID = 'CONE_6_25', T = 430.800, F = 125.399 / PMMA_CN_6mm_Vertical
&RAMP ID = 'CONE_6_25', T = 474.300, F = 95.645 / PMMA_CN_6mm_Vertical
&RAMP ID = 'CONE_6_25', T = 514.200, F = 74.657 / PMMA_CN_6mm_Vertical
&RAMP ID = 'CONE_6_25', T = 601.200, F = 41.338 / PMMA_CN_6mm_Vertical
&RAMP ID = 'CONE_6_25', T = 691.300, F = 21.991 / PMMA_CN_6mm_Vertical
&RAMP ID = 'CONE_6_25', T = 692.300, F = 0.000 / PMMA_CN_6mm_Vertical


&RAMP ID = 'CONE_6_50', T = 0.000, F = 0.000 / PMMA_CN_6mm_Vertical
&RAMP ID = 'CONE_6_50', T = 0.100, F = 329.009 / PMMA_CN_6mm_Vertical
&RAMP ID = 'CONE_6_50', T = 1.700, F = 370.135 / PMMA_CN_6mm_Vertical
&RAMP ID = 'CONE_6_50', T = 2.500, F = 385.990 / PMMA_CN_6mm_Vertical
&RAMP ID = 'CONE_6_50', T = 6.500, F = 433.474 / PMMA_CN_6mm_Vertical
&RAMP ID = 'CONE_6_50', T = 8.100, F = 446.236 / PMMA_CN_6mm_Vertical
&RAMP ID = 'CONE_6_50', T = 12.800, F = 469.164 / PMMA_CN_6mm_Vertical
&RAMP ID = 'CONE_6_50', T = 28.300, F = 518.924 / PMMA_CN_6mm_Vertical
&RAMP ID = 'CONE_6_50', T = 37.700, F = 538.433 / PMMA_CN_6mm_Vertical
&RAMP ID = 'CONE_6_50', T = 43.000, F = 555.654 / PMMA_CN_6mm_Vertical
&RAMP ID = 'CONE_6_50', T = 47.400, F = 565.831 / PMMA_CN_6mm_Vertical
&RAMP ID = 'CONE_6_50', T = 62.100, F = 572.556 / PMMA_CN_6mm_Vertical
&RAMP ID = 'CONE_6_50', T = 73.400, F = 595.207 / PMMA_CN_6mm_Vertical
&RAMP ID = 'CONE_6_50', T = 82.000, F = 604.081 / PMMA_CN_6mm_Vertical
&RAMP ID = 'CONE_6_50', T = 86.900, F = 605.113 / PMMA_CN_6mm_Vertical
&RAMP ID = 'CONE_6_50', T = 92.800, F = 616.123 / PMMA_CN_6mm_Vertical
&RAMP ID = 'CONE_6_50', T = 97.300, F = 620.099 / PMMA_CN_6mm_Vertical
&RAMP ID = 'CONE_6_50', T = 108.100, F = 645.071 / PMMA_CN_6mm_Vertical
&RAMP ID = 'CONE_6_50', T = 118.300, F = 651.174 / PMMA_CN_6mm_Vertical
&RAMP ID = 'CONE_6_50', T = 122.200, F = 659.676 / PMMA_CN_6mm_Vertical
&RAMP ID = 'CONE_6_50', T = 127.900, F = 682.412 / PMMA_CN_6mm_Vertical
&RAMP ID = 'CONE_6_50', T = 137.200, F = 691.564 / PMMA_CN_6mm_Vertical
&RAMP ID = 'CONE_6_50', T = 148.100, F = 715.771 / PMMA_CN_6mm_Vertical
&RAMP ID = 'CONE_6_50', T = 156.900, F = 725.895 / PMMA_CN_6mm_Vertical
&RAMP ID = 'CONE_6_50', T = 171.800, F = 762.065 / PMMA_CN_6mm_Vertical
&RAMP ID = 'CONE_6_50', T = 178.100, F = 799.310 / PMMA_CN_6mm_Vertical
&RAMP ID = 'CONE_6_50', T = 182.100, F = 817.671 / PMMA_CN_6mm_Vertical
&RAMP ID = 'CONE_6_50', T = 193.100, F = 843.449 / PMMA_CN_6mm_Vertical
&RAMP ID = 'CONE_6_50', T = 196.800, F = 848.547 / PMMA_CN_6mm_Vertical
&RAMP ID = 'CONE_6_50', T = 198.100, F = 845.923 / PMMA_CN_6mm_Vertical
&RAMP ID = 'CONE_6_50', T = 201.800, F = 829.629 / PMMA_CN_6mm_Vertical
&RAMP ID = 'CONE_6_50', T = 206.500, F = 785.280 / PMMA_CN_6mm_Vertical
&RAMP ID = 'CONE_6_50', T = 218.400, F = 632.054 / PMMA_CN_6mm_Vertical
&RAMP ID = 'CONE_6_50', T = 227.000, F = 535.919 / PMMA_CN_6mm_Vertical
&RAMP ID = 'CONE_6_50', T = 237.100, F = 435.414 / PMMA_CN_6mm_Vertical
&RAMP ID = 'CONE_6_50', T = 242.700, F = 391.250 / PMMA_CN_6mm_Vertical
&RAMP ID = 'CONE_6_50', T = 251.800, F = 336.076 / PMMA_CN_6mm_Vertical
&RAMP ID = 'CONE_6_50', T = 262.900, F = 282.267 / PMMA_CN_6mm_Vertical
&RAMP ID = 'CONE_6_50', T = 287.400, F = 206.338 / PMMA_CN_6mm_Vertical
&RAMP ID = 'CONE_6_50', T = 297.800, F = 180.059 / PMMA_CN_6mm_Vertical
&RAMP ID = 'CONE_6_50', T = 327.300, F = 118.566 / PMMA_CN_6mm_Vertical
&RAMP ID = 'CONE_6_50', T = 342.000, F = 96.286 / PMMA_CN_6mm_Vertical
&RAMP ID = 'CONE_6_50', T = 362.000, F = 78.006 / PMMA_CN_6mm_Vertical
&RAMP ID = 'CONE_6_50', T = 403.200, F = 60.363 / PMMA_CN_6mm_Vertical
&RAMP ID = 'CONE_6_50', T = 436.900, F = 51.053 / PMMA_CN_6mm_Vertical
&RAMP ID = 'CONE_6_50', T = 516.400, F = 37.406 / PMMA_CN_6mm_Vertical
&RAMP ID = 'CONE_6_50', T = 582.400, F = 19.439 / PMMA_CN_6mm_Vertical
&RAMP ID = 'CONE_6_50', T = 583.400, F = 0.000 / PMMA_CN_6mm_Vertical


&RAMP ID = 'CONE_6_75', T = 0.000, F = 0.000 / PMMA_CN_6mm_Vertical
&RAMP ID = 'CONE_6_75', T = 0.100, F = 396.211 / PMMA_CN_6mm_Vertical
&RAMP ID = 'CONE_6_75', T = 3.400, F = 538.765 / PMMA_CN_6mm_Vertical
&RAMP ID = 'CONE_6_75', T = 4.500, F = 577.670 / PMMA_CN_6mm_Vertical
&RAMP ID = 'CONE_6_75', T = 5.100, F = 592.182 / PMMA_CN_6mm_Vertical
&RAMP ID = 'CONE_6_75', T = 8.400, F = 653.564 / PMMA_CN_6mm_Vertical
&RAMP ID = 'CONE_6_75', T = 9.900, F = 672.029 / PMMA_CN_6mm_Vertical
&RAMP ID = 'CONE_6_75', T = 14.900, F = 694.789 / PMMA_CN_6mm_Vertical
&RAMP ID = 'CONE_6_75', T = 24.400, F = 711.773 / PMMA_CN_6mm_Vertical
&RAMP ID = 'CONE_6_75', T = 29.700, F = 735.530 / PMMA_CN_6mm_Vertical
&RAMP ID = 'CONE_6_75', T = 39.300, F = 755.501 / PMMA_CN_6mm_Vertical
&RAMP ID = 'CONE_6_75', T = 44.500, F = 776.302 / PMMA_CN_6mm_Vertical
&RAMP ID = 'CONE_6_75', T = 63.600, F = 789.810 / PMMA_CN_6mm_Vertical
&RAMP ID = 'CONE_6_75', T = 69.500, F = 816.398 / PMMA_CN_6mm_Vertical
&RAMP ID = 'CONE_6_75', T = 73.300, F = 825.247 / PMMA_CN_6mm_Vertical
&RAMP ID = 'CONE_6_75', T = 79.800, F = 830.057 / PMMA_CN_6mm_Vertical
&RAMP ID = 'CONE_6_75', T = 85.000, F = 846.142 / PMMA_CN_6mm_Vertical
&RAMP ID = 'CONE_6_75', T = 88.600, F = 853.454 / PMMA_CN_6mm_Vertical
&RAMP ID = 'CONE_6_75', T = 94.900, F = 853.845 / PMMA_CN_6mm_Vertical
&RAMP ID = 'CONE_6_75', T = 99.400, F = 860.651 / PMMA_CN_6mm_Vertical
&RAMP ID = 'CONE_6_75', T = 104.600, F = 881.556 / PMMA_CN_6mm_Vertical
&RAMP ID = 'CONE_6_75', T = 113.600, F = 930.898 / PMMA_CN_6mm_Vertical
&RAMP ID = 'CONE_6_75', T = 118.900, F = 936.676 / PMMA_CN_6mm_Vertical
&RAMP ID = 'CONE_6_75', T = 123.400, F = 955.294 / PMMA_CN_6mm_Vertical
&RAMP ID = 'CONE_6_75', T = 133.900, F = 1022.734 / PMMA_CN_6mm_Vertical
&RAMP ID = 'CONE_6_75', T = 138.500, F = 1058.312 / PMMA_CN_6mm_Vertical
&RAMP ID = 'CONE_6_75', T = 143.300, F = 1087.038 / PMMA_CN_6mm_Vertical
&RAMP ID = 'CONE_6_75', T = 144.500, F = 1090.831 / PMMA_CN_6mm_Vertical
&RAMP ID = 'CONE_6_75', T = 149.500, F = 1074.084 / PMMA_CN_6mm_Vertical
&RAMP ID = 'CONE_6_75', T = 153.700, F = 1018.150 / PMMA_CN_6mm_Vertical
&RAMP ID = 'CONE_6_75', T = 159.100, F = 912.322 / PMMA_CN_6mm_Vertical
&RAMP ID = 'CONE_6_75', T = 164.000, F = 791.532 / PMMA_CN_6mm_Vertical
&RAMP ID = 'CONE_6_75', T = 170.100, F = 665.602 / PMMA_CN_6mm_Vertical
&RAMP ID = 'CONE_6_75', T = 179.200, F = 502.459 / PMMA_CN_6mm_Vertical
&RAMP ID = 'CONE_6_75', T = 184.500, F = 439.009 / PMMA_CN_6mm_Vertical
&RAMP ID = 'CONE_6_75', T = 189.700, F = 396.745 / PMMA_CN_6mm_Vertical
&RAMP ID = 'CONE_6_75', T = 194.700, F = 363.504 / PMMA_CN_6mm_Vertical
&RAMP ID = 'CONE_6_75', T = 204.600, F = 313.262 / PMMA_CN_6mm_Vertical
&RAMP ID = 'CONE_6_75', T = 215.100, F = 248.598 / PMMA_CN_6mm_Vertical
&RAMP ID = 'CONE_6_75', T = 223.300, F = 203.312 / PMMA_CN_6mm_Vertical
&RAMP ID = 'CONE_6_75', T = 229.900, F = 175.605 / PMMA_CN_6mm_Vertical
&RAMP ID = 'CONE_6_75', T = 243.800, F = 135.992 / PMMA_CN_6mm_Vertical
&RAMP ID = 'CONE_6_75', T = 249.600, F = 124.147 / PMMA_CN_6mm_Vertical
&RAMP ID = 'CONE_6_75', T = 274.500, F = 95.646 / PMMA_CN_6mm_Vertical
&RAMP ID = 'CONE_6_75', T = 319.700, F = 76.321 / PMMA_CN_6mm_Vertical
&RAMP ID = 'CONE_6_75', T = 378.200, F = 33.818 / PMMA_CN_6mm_Vertical
&RAMP ID = 'CONE_6_75', T = 423.700, F = 20.628 / PMMA_CN_6mm_Vertical
&RAMP ID = 'CONE_6_75', T = 424.700, F = 0.000 / PMMA_CN_6mm_Vertical


&RAMP ID = 'CONE_10_25', T = 0.000, F = 0.000 / PMMA_CN_10mm_Vertical
&RAMP ID = 'CONE_10_25', T = 0.100, F = 254.576 / PMMA_CN_10mm_Vertical
&RAMP ID = 'CONE_10_25', T = 3.100, F = 263.710 / PMMA_CN_10mm_Vertical
&RAMP ID = 'CONE_10_25', T = 8.200, F = 271.967 / PMMA_CN_10mm_Vertical
&RAMP ID = 'CONE_10_25', T = 29.800, F = 296.634 / PMMA_CN_10mm_Vertical
&RAMP ID = 'CONE_10_25', T = 42.500, F = 300.324 / PMMA_CN_10mm_Vertical
&RAMP ID = 'CONE_10_25', T = 70.600, F = 319.401 / PMMA_CN_10mm_Vertical
&RAMP ID = 'CONE_10_25', T = 88.400, F = 313.279 / PMMA_CN_10mm_Vertical
&RAMP ID = 'CONE_10_25', T = 125.100, F = 330.048 / PMMA_CN_10mm_Vertical
&RAMP ID = 'CONE_10_25', T = 137.900, F = 330.548 / PMMA_CN_10mm_Vertical
&RAMP ID = 'CONE_10_25', T = 148.300, F = 336.963 / PMMA_CN_10mm_Vertical
&RAMP ID = 'CONE_10_25', T = 162.600, F = 335.978 / PMMA_CN_10mm_Vertical
&RAMP ID = 'CONE_10_25', T = 180.000, F = 343.119 / PMMA_CN_10mm_Vertical
&RAMP ID = 'CONE_10_25', T = 189.800, F = 352.639 / PMMA_CN_10mm_Vertical
&RAMP ID = 'CONE_10_25', T = 214.900, F = 345.443 / PMMA_CN_10mm_Vertical
&RAMP ID = 'CONE_10_25', T = 225.400, F = 353.574 / PMMA_CN_10mm_Vertical
&RAMP ID = 'CONE_10_25', T = 237.600, F = 350.766 / PMMA_CN_10mm_Vertical
&RAMP ID = 'CONE_10_25', T = 247.600, F = 359.134 / PMMA_CN_10mm_Vertical
&RAMP ID = 'CONE_10_25', T = 269.500, F = 360.487 / PMMA_CN_10mm_Vertical
&RAMP ID = 'CONE_10_25', T = 323.500, F = 380.446 / PMMA_CN_10mm_Vertical
&RAMP ID = 'CONE_10_25', T = 348.400, F = 379.502 / PMMA_CN_10mm_Vertical
&RAMP ID = 'CONE_10_25', T = 377.700, F = 394.599 / PMMA_CN_10mm_Vertical
&RAMP ID = 'CONE_10_25', T = 388.200, F = 395.704 / PMMA_CN_10mm_Vertical
&RAMP ID = 'CONE_10_25', T = 415.300, F = 409.241 / PMMA_CN_10mm_Vertical
&RAMP ID = 'CONE_10_25', T = 425.900, F = 420.216 / PMMA_CN_10mm_Vertical
&RAMP ID = 'CONE_10_25', T = 431.100, F = 420.279 / PMMA_CN_10mm_Vertical
&RAMP ID = 'CONE_10_25', T = 441.300, F = 439.430 / PMMA_CN_10mm_Vertical
&RAMP ID = 'CONE_10_25', T = 455.600, F = 451.458 / PMMA_CN_10mm_Vertical
&RAMP ID = 'CONE_10_25', T = 482.500, F = 455.197 / PMMA_CN_10mm_Vertical
&RAMP ID = 'CONE_10_25', T = 491.400, F = 472.814 / PMMA_CN_10mm_Vertical
&RAMP ID = 'CONE_10_25', T = 501.400, F = 476.160 / PMMA_CN_10mm_Vertical
&RAMP ID = 'CONE_10_25', T = 522.600, F = 512.845 / PMMA_CN_10mm_Vertical
&RAMP ID = 'CONE_10_25', T = 530.600, F = 513.591 / PMMA_CN_10mm_Vertical
&RAMP ID = 'CONE_10_25', T = 548.500, F = 550.576 / PMMA_CN_10mm_Vertical
&RAMP ID = 'CONE_10_25', T = 563.000, F = 555.024 / PMMA_CN_10mm_Vertical
&RAMP ID = 'CONE_10_25', T = 566.100, F = 553.510 / PMMA_CN_10mm_Vertical
&RAMP ID = 'CONE_10_25', T = 571.500, F = 541.224 / PMMA_CN_10mm_Vertical
&RAMP ID = 'CONE_10_25', T = 584.700, F = 499.471 / PMMA_CN_10mm_Vertical
&RAMP ID = 'CONE_10_25', T = 590.200, F = 486.035 / PMMA_CN_10mm_Vertical
&RAMP ID = 'CONE_10_25', T = 640.900, F = 292.997 / PMMA_CN_10mm_Vertical
&RAMP ID = 'CONE_10_25', T = 665.800, F = 226.337 / PMMA_CN_10mm_Vertical
&RAMP ID = 'CONE_10_25', T = 699.800, F = 189.941 / PMMA_CN_10mm_Vertical
&RAMP ID = 'CONE_10_25', T = 753.300, F = 149.488 / PMMA_CN_10mm_Vertical
&RAMP ID = 'CONE_10_25', T = 794.800, F = 100.098 / PMMA_CN_10mm_Vertical
&RAMP ID = 'CONE_10_25', T = 821.400, F = 76.143 / PMMA_CN_10mm_Vertical
&RAMP ID = 'CONE_10_25', T = 890.000, F = 50.785 / PMMA_CN_10mm_Vertical
&RAMP ID = 'CONE_10_25', T = 1010.400, F = 32.422 / PMMA_CN_10mm_Vertical
&RAMP ID = 'CONE_10_25', T = 1011.400, F = 0.000 / PMMA_CN_10mm_Vertical


&RAMP ID = 'CONE_10_50', T = 0.000, F = 0.000 / PMMA_CN_10mm_Vertical
&RAMP ID = 'CONE_10_50', T = 0.100, F = 372.944 / PMMA_CN_10mm_Vertical
&RAMP ID = 'CONE_10_50', T = 1.200, F = 386.787 / PMMA_CN_10mm_Vertical
&RAMP ID = 'CONE_10_50', T = 4.600, F = 422.341 / PMMA_CN_10mm_Vertical
&RAMP ID = 'CONE_10_50', T = 8.500, F = 450.834 / PMMA_CN_10mm_Vertical
&RAMP ID = 'CONE_10_50', T = 14.600, F = 477.655 / PMMA_CN_10mm_Vertical
&RAMP ID = 'CONE_10_50', T = 31.000, F = 515.397 / PMMA_CN_10mm_Vertical
&RAMP ID = 'CONE_10_50', T = 39.100, F = 524.517 / PMMA_CN_10mm_Vertical
&RAMP ID = 'CONE_10_50', T = 48.700, F = 554.948 / PMMA_CN_10mm_Vertical
&RAMP ID = 'CONE_10_50', T = 64.300, F = 559.161 / PMMA_CN_10mm_Vertical
&RAMP ID = 'CONE_10_50', T = 115.100, F = 588.690 / PMMA_CN_10mm_Vertical
&RAMP ID = 'CONE_10_50', T = 126.000, F = 607.833 / PMMA_CN_10mm_Vertical
&RAMP ID = 'CONE_10_50', T = 138.700, F = 613.838 / PMMA_CN_10mm_Vertical
&RAMP ID = 'CONE_10_50', T = 154.400, F = 631.597 / PMMA_CN_10mm_Vertical
&RAMP ID = 'CONE_10_50', T = 161.000, F = 631.083 / PMMA_CN_10mm_Vertical
&RAMP ID = 'CONE_10_50', T = 170.300, F = 646.048 / PMMA_CN_10mm_Vertical
&RAMP ID = 'CONE_10_50', T = 179.900, F = 640.074 / PMMA_CN_10mm_Vertical
&RAMP ID = 'CONE_10_50', T = 190.000, F = 643.327 / PMMA_CN_10mm_Vertical
&RAMP ID = 'CONE_10_50', T = 200.700, F = 654.766 / PMMA_CN_10mm_Vertical
&RAMP ID = 'CONE_10_50', T = 213.700, F = 654.227 / PMMA_CN_10mm_Vertical
&RAMP ID = 'CONE_10_50', T = 223.800, F = 667.155 / PMMA_CN_10mm_Vertical
&RAMP ID = 'CONE_10_50', T = 235.600, F = 659.086 / PMMA_CN_10mm_Vertical
&RAMP ID = 'CONE_10_50', T = 249.600, F = 686.878 / PMMA_CN_10mm_Vertical
&RAMP ID = 'CONE_10_50', T = 266.000, F = 692.563 / PMMA_CN_10mm_Vertical
&RAMP ID = 'CONE_10_50', T = 280.200, F = 712.885 / PMMA_CN_10mm_Vertical
&RAMP ID = 'CONE_10_50', T = 288.800, F = 719.040 / PMMA_CN_10mm_Vertical
&RAMP ID = 'CONE_10_50', T = 294.900, F = 729.922 / PMMA_CN_10mm_Vertical
&RAMP ID = 'CONE_10_50', T = 301.200, F = 750.308 / PMMA_CN_10mm_Vertical
&RAMP ID = 'CONE_10_50', T = 311.400, F = 762.865 / PMMA_CN_10mm_Vertical
&RAMP ID = 'CONE_10_50', T = 318.700, F = 781.833 / PMMA_CN_10mm_Vertical
&RAMP ID = 'CONE_10_50', T = 339.600, F = 820.057 / PMMA_CN_10mm_Vertical
&RAMP ID = 'CONE_10_50', T = 344.800, F = 807.266 / PMMA_CN_10mm_Vertical
&RAMP ID = 'CONE_10_50', T = 348.400, F = 786.411 / PMMA_CN_10mm_Vertical
&RAMP ID = 'CONE_10_50', T = 358.900, F = 703.971 / PMMA_CN_10mm_Vertical
&RAMP ID = 'CONE_10_50', T = 371.000, F = 624.551 / PMMA_CN_10mm_Vertical
&RAMP ID = 'CONE_10_50', T = 380.000, F = 541.356 / PMMA_CN_10mm_Vertical
&RAMP ID = 'CONE_10_50', T = 383.800, F = 511.726 / PMMA_CN_10mm_Vertical
&RAMP ID = 'CONE_10_50', T = 395.000, F = 439.037 / PMMA_CN_10mm_Vertical
&RAMP ID = 'CONE_10_50', T = 399.900, F = 414.551 / PMMA_CN_10mm_Vertical
&RAMP ID = 'CONE_10_50', T = 426.200, F = 314.497 / PMMA_CN_10mm_Vertical
&RAMP ID = 'CONE_10_50', T = 444.300, F = 260.496 / PMMA_CN_10mm_Vertical
&RAMP ID = 'CONE_10_50', T = 496.300, F = 151.048 / PMMA_CN_10mm_Vertical
&RAMP ID = 'CONE_10_50', T = 520.000, F = 126.743 / PMMA_CN_10mm_Vertical
&RAMP ID = 'CONE_10_50', T = 551.100, F = 107.043 / PMMA_CN_10mm_Vertical
&RAMP ID = 'CONE_10_50', T = 609.600, F = 87.890 / PMMA_CN_10mm_Vertical
&RAMP ID = 'CONE_10_50', T = 680.800, F = 53.185 / PMMA_CN_10mm_Vertical
&RAMP ID = 'CONE_10_50', T = 754.600, F = 28.928 / PMMA_CN_10mm_Vertical
&RAMP ID = 'CONE_10_50', T = 755.600, F = 0.000 / PMMA_CN_10mm_Vertical


&RAMP ID = 'CONE_10_75', T = 0.000, F = 0.000 / PMMA_CN_10mm_Vertical
&RAMP ID = 'CONE_10_75', T = 0.100, F = 498.413 / PMMA_CN_10mm_Vertical
&RAMP ID = 'CONE_10_75', T = 3.200, F = 589.137 / PMMA_CN_10mm_Vertical
&RAMP ID = 'CONE_10_75', T = 5.300, F = 630.525 / PMMA_CN_10mm_Vertical
&RAMP ID = 'CONE_10_75', T = 7.400, F = 662.397 / PMMA_CN_10mm_Vertical
&RAMP ID = 'CONE_10_75', T = 12.800, F = 717.491 / PMMA_CN_10mm_Vertical
&RAMP ID = 'CONE_10_75', T = 17.700, F = 739.764 / PMMA_CN_10mm_Vertical
&RAMP ID = 'CONE_10_75', T = 27.100, F = 764.570 / PMMA_CN_10mm_Vertical
&RAMP ID = 'CONE_10_75', T = 38.300, F = 775.458 / PMMA_CN_10mm_Vertical
&RAMP ID = 'CONE_10_75', T = 45.000, F = 793.760 / PMMA_CN_10mm_Vertical
&RAMP ID = 'CONE_10_75', T = 62.500, F = 804.172 / PMMA_CN_10mm_Vertical
&RAMP ID = 'CONE_10_75', T = 72.700, F = 803.164 / PMMA_CN_10mm_Vertical
&RAMP ID = 'CONE_10_75', T = 83.600, F = 828.332 / PMMA_CN_10mm_Vertical
&RAMP ID = 'CONE_10_75', T = 92.400, F = 830.690 / PMMA_CN_10mm_Vertical
&RAMP ID = 'CONE_10_75', T = 101.900, F = 851.802 / PMMA_CN_10mm_Vertical
&RAMP ID = 'CONE_10_75', T = 115.400, F = 857.960 / PMMA_CN_10mm_Vertical
&RAMP ID = 'CONE_10_75', T = 122.500, F = 851.603 / PMMA_CN_10mm_Vertical
&RAMP ID = 'CONE_10_75', T = 132.700, F = 882.484 / PMMA_CN_10mm_Vertical
&RAMP ID = 'CONE_10_75', T = 144.700, F = 891.108 / PMMA_CN_10mm_Vertical
&RAMP ID = 'CONE_10_75', T = 153.000, F = 883.328 / PMMA_CN_10mm_Vertical
&RAMP ID = 'CONE_10_75', T = 160.200, F = 905.997 / PMMA_CN_10mm_Vertical
&RAMP ID = 'CONE_10_75', T = 175.700, F = 900.602 / PMMA_CN_10mm_Vertical
&RAMP ID = 'CONE_10_75', T = 187.200, F = 932.928 / PMMA_CN_10mm_Vertical
&RAMP ID = 'CONE_10_75', T = 197.700, F = 928.703 / PMMA_CN_10mm_Vertical
&RAMP ID = 'CONE_10_75', T = 210.700, F = 953.835 / PMMA_CN_10mm_Vertical
&RAMP ID = 'CONE_10_75', T = 218.500, F = 993.366 / PMMA_CN_10mm_Vertical
&RAMP ID = 'CONE_10_75', T = 227.700, F = 996.532 / PMMA_CN_10mm_Vertical
&RAMP ID = 'CONE_10_75', T = 233.400, F = 1021.161 / PMMA_CN_10mm_Vertical
&RAMP ID = 'CONE_10_75', T = 240.400, F = 1037.589 / PMMA_CN_10mm_Vertical
&RAMP ID = 'CONE_10_75', T = 248.000, F = 1067.776 / PMMA_CN_10mm_Vertical
&RAMP ID = 'CONE_10_75', T = 252.800, F = 1049.717 / PMMA_CN_10mm_Vertical
&RAMP ID = 'CONE_10_75', T = 262.000, F = 964.610 / PMMA_CN_10mm_Vertical
&RAMP ID = 'CONE_10_75', T = 265.200, F = 921.650 / PMMA_CN_10mm_Vertical
&RAMP ID = 'CONE_10_75', T = 275.700, F = 747.504 / PMMA_CN_10mm_Vertical
&RAMP ID = 'CONE_10_75', T = 282.100, F = 655.355 / PMMA_CN_10mm_Vertical
&RAMP ID = 'CONE_10_75', T = 296.900, F = 506.406 / PMMA_CN_10mm_Vertical
&RAMP ID = 'CONE_10_75', T = 302.200, F = 460.815 / PMMA_CN_10mm_Vertical
&RAMP ID = 'CONE_10_75', T = 318.600, F = 363.236 / PMMA_CN_10mm_Vertical
&RAMP ID = 'CONE_10_75', T = 330.600, F = 301.658 / PMMA_CN_10mm_Vertical
&RAMP ID = 'CONE_10_75', T = 352.400, F = 221.116 / PMMA_CN_10mm_Vertical
&RAMP ID = 'CONE_10_75', T = 360.300, F = 198.789 / PMMA_CN_10mm_Vertical
&RAMP ID = 'CONE_10_75', T = 373.600, F = 171.222 / PMMA_CN_10mm_Vertical
&RAMP ID = 'CONE_10_75', T = 395.300, F = 141.349 / PMMA_CN_10mm_Vertical
&RAMP ID = 'CONE_10_75', T = 417.300, F = 121.058 / PMMA_CN_10mm_Vertical
&RAMP ID = 'CONE_10_75', T = 455.500, F = 104.535 / PMMA_CN_10mm_Vertical
&RAMP ID = 'CONE_10_75', T = 513.300, F = 50.251 / PMMA_CN_10mm_Vertical
&RAMP ID = 'CONE_10_75', T = 548.700, F = 33.780 / PMMA_CN_10mm_Vertical
&RAMP ID = 'CONE_10_75', T = 549.700, F = 0.000 / PMMA_CN_10mm_Vertical



*** Heater GEOM ***
&MOVE ID='spin90', ROTATION_ANGLE=90., X0=0., Y0=0., Z0=0., AXIS=1,0,0 /
<HeaterAssembly_LowRes>
! GEOM Vertices: 480 | Faces: 960
&GEOM ID='Heater_LowRes' SURF_ID='ConeHeater','StainlessSteel' MOVE_ID = 'spin90'
      VERTS=-0.000000,0.098469,0.027000,-0.000000,0.054995,0.092000,0.019210,
        0.096577,0.027000,0.010729,0.053938,0.092000,0.037682,0.090973,0.027000,
        0.021046,0.050809,0.092000,0.054706,0.081874,0.027000,0.030553,0.045727,
        0.092000,0.069628,0.069628,0.027000,0.038887,0.038887,0.092000,0.081874,
        0.054706,0.027000,0.045727,0.030553,0.092000,0.090973,0.037682,0.027000,
        0.050809,0.021046,0.092000,0.096577,0.019210,0.027000,0.053938,0.010729,
        0.092000,0.098469,-0.000000,0.027000,0.054995,0.000000,0.092000,
        0.096577,-0.019210,0.027000,0.053938,-0.010729,0.092000,0.090973,
        -0.037682,0.027000,0.050809,-0.021046,0.092000,0.081874,-0.054706,
        0.027000,0.045727,-0.030553,0.092000,0.069628,-0.069628,0.027000,
        0.038887,-0.038887,0.092000,0.054706,-0.081874,0.027000,0.030553,
        -0.045727,0.092000,0.037682,-0.090973,0.027000,0.021046,-0.050809,
        0.092000,0.019210,-0.096577,0.027000,0.010729,-0.053938,0.092000,
        -0.000000,-0.098469,0.027000,-0.000000,-0.054995,0.092000,-0.019210,