&HEAD CHID='cone_geom_hh_6_50', TITLE='Cone Calorimeter simulation setup horizontal - example PMMA with 6mm thickness and 50kW/m2 heat flux' /

MESH ID='MESH01', IJK=45,45,45, XB=-0.15,0.15,-0.15,0.15,-0.10,0.20/
&MESH ID='MESH01', IJK=15,15,45, XB=-0.15,-0.05,-0.15,-0.05, -0.1,0.2/
&MESH ID='MESH02', IJK=15,15,45, XB=-0.15,-0.05,-0.05, 0.05, -0.1,0.2/
&MESH ID='MESH03', IJK=15,15,45, XB=-0.15,-0.05, 0.05, 0.15, -0.1,0.2/
&MESH ID='MESH04', IJK=15,15,45, XB=-0.05,0.05,-0.15,-0.05, -0.1,0.2/
&MESH ID='MESH05', IJK=15,15,45, XB=-0.05,0.05,-0.05, 0.05, -0.1,0.2/
&MESH ID='MESH06', IJK=15,15,45, XB=-0.05,0.05,0.05, 0.15 , -0.1,0.2/
&MESH ID='MESH07', IJK=15,15,45, XB=0.05,0.15,-0.15,-0.05,-0.1,0.2/
&MESH ID='MESH08', IJK=15,15,45, XB=0.05,0.15,-0.05, 0.05,-0.1,0.2/
&MESH ID='MESH09', IJK=15,15,45, XB=0.05,0.15,0.05, 0.15 ,-0.1,0.2/

&TIME T_BEGIN = -5, T_END= 1200/
&DUMP NFRAMES=1205, DT_RESTART=300, DT_BNDF=5, DT_SLCF=10, DT_DEVC=1 /

&MISC SIMULATION_MODE='LES' RESTART=F  BNDF_DEFAULT=F / 
&RADI NUMBER_RADIATION_ANGLES=300, QR_CLIP = 1, C_MIN = 0.1, C_MAX = 100 /

&SPEC ID='MMA', FORMULA='C5O2H8', RADCAL_ID='MMA', RAMP_CP='MMA CP'/
&RAMP ID='MMA CP', T=114, F=1.48 / https://www.chemeo.com/cid/57-301-4/Methyl-methacrylate
&RAMP ID='MMA CP', T=300, F=1.90 /
&REAC FUEL='MMA', SOOT_YIELD=0.022, CO_YIELD=0.010, RADIATIVE_FRACTION=0.33, HEAT_OF_COMBUSTION=25610 / entnommen aus https://github.com/firemodels/fds/blob/master/Validation/NIST_NRC_Parallel_Panels/FDS_Input_Files/PMMA_60_kW_1_cm.fds

***** Open Vents ********************

&VENT MB = 'XMIN',SURF_ID = 'OPEN'/
&VENT MB = 'XMAX',SURF_ID = 'OPEN'/
&VENT MB = 'YMIN',SURF_ID = 'OPEN'/
&VENT MB = 'YMAX',SURF_ID = 'OPEN'/
&VENT MB = 'ZMIN',SURF_ID = 'OPEN'/
&VENT MB = 'ZMAX',SURF_ID = 'OPEN'/

################################
#### Materials and Surfaces ####
################################

***** Surfaces ********************

https://nvlpubs.nist.gov/nistpubs/Legacy/IR/nbsir82-2611.pdf
From Babrauskas's report:
75 kW/m2: 841 ˚C  emis: 1.359
50 kW/m2: 744 ˚C  emis: 1.276
25 kW/m2: 592 ˚C  emis: 1.198
Estimated:
65 kW/m2: 804 ˚C

estimated with fixed Emissivity:
25 kW/m² -> 634 °C
50 kW/m² -> 804 °C
75 kW/m² -> 918 °C

&SURF ID         = 'ConeHeater'
      RGB        = 255,31,5
      EMISSIVITY = 0.9
      TMP_FRONT  = 804
      RAMP_T     = 'CONE' /

&RAMP ID='CONE', T=-1.0, F=0/
&RAMP ID='CONE', T=0, F=1/

&MATL ID='STEEL' FYI='Eurocode 3' DENSITY=7850.0
      CONDUCTIVITY_RAMP='STEEL_CONDUCTIVITY_RAMP'
      SPECIFIC_HEAT_RAMP='STEEL_SPECIFIC_HEAT_RAMP' /
&RAMP ID='STEEL_SPECIFIC_HEAT_RAMP' T=0.0 F=0.425 /
&RAMP ID='STEEL_SPECIFIC_HEAT_RAMP' T=20.0 F=0.439802 /
&RAMP ID='STEEL_SPECIFIC_HEAT_RAMP' T=100.0 F=0.48762 /
&RAMP ID='STEEL_SPECIFIC_HEAT_RAMP' T=200.0 F=0.52976 /
&RAMP ID='STEEL_SPECIFIC_HEAT_RAMP' T=300.0 F=0.56474 /
&RAMP ID='STEEL_SPECIFIC_HEAT_RAMP' T=400.0 F=0.60588 /
&RAMP ID='STEEL_SPECIFIC_HEAT_RAMP' T=500.0 F=0.6665 /
&RAMP ID='STEEL_SPECIFIC_HEAT_RAMP' T=600.0 F=0.75992 /
&RAMP ID='STEEL_SPECIFIC_HEAT_RAMP' T=600.01 F=0.760224 /
&RAMP ID='STEEL_SPECIFIC_HEAT_RAMP' T=620.0 F=0.776186 /
&RAMP ID='STEEL_SPECIFIC_HEAT_RAMP' T=640.0 F=0.798673 /
&RAMP ID='STEEL_SPECIFIC_HEAT_RAMP' T=660.0 F=0.832692 /
&RAMP ID='STEEL_SPECIFIC_HEAT_RAMP' T=680.0 F=0.890172 /
&RAMP ID='STEEL_SPECIFIC_HEAT_RAMP' T=700.0 F=1.008158 /
&RAMP ID='STEEL_SPECIFIC_HEAT_RAMP' T=720.0 F=1.388333 /
&RAMP ID='STEEL_SPECIFIC_HEAT_RAMP' T=735.0 F=5.0 /
&RAMP ID='STEEL_SPECIFIC_HEAT_RAMP' T=735.01 F=4.98889 /
&RAMP ID='STEEL_SPECIFIC_HEAT_RAMP' T=740.0 F=2.525 /
&RAMP ID='STEEL_SPECIFIC_HEAT_RAMP' T=760.0 F=1.159483 /
&RAMP ID='STEEL_SPECIFIC_HEAT_RAMP' T=780.0 F=0.908673 /
&RAMP ID='STEEL_SPECIFIC_HEAT_RAMP' T=800.0 F=0.803261 /
&RAMP ID='STEEL_SPECIFIC_HEAT_RAMP' T=820.0 F=0.745225 /
&RAMP ID='STEEL_SPECIFIC_HEAT_RAMP' T=840.0 F=0.708486 /
&RAMP ID='STEEL_SPECIFIC_HEAT_RAMP' T=860.0 F=0.68314 /
&RAMP ID='STEEL_SPECIFIC_HEAT_RAMP' T=880.0 F=0.664597 /
&RAMP ID='STEEL_SPECIFIC_HEAT_RAMP' T=900.0 F=0.650444 /
&RAMP ID='STEEL_SPECIFIC_HEAT_RAMP' T=900.01 F=0.65 /
&RAMP ID='STEEL_SPECIFIC_HEAT_RAMP' T=1000.0 F=0.65 /
&RAMP ID='STEEL_SPECIFIC_HEAT_RAMP' T=1100.0 F=0.65 /
&RAMP ID='STEEL_SPECIFIC_HEAT_RAMP' T=1200.0 F=0.65 /
&RAMP ID='STEEL_CONDUCTIVITY_RAMP' T=0.0 F=54.0 /
&RAMP ID='STEEL_CONDUCTIVITY_RAMP' T=20.0 F=53.334 /
&RAMP ID='STEEL_CONDUCTIVITY_RAMP' T=100.0 F=50.67 /
&RAMP ID='STEEL_CONDUCTIVITY_RAMP' T=200.0 F=47.34 /
&RAMP ID='STEEL_CONDUCTIVITY_RAMP' T=300.0 F=44.01 /
&RAMP ID='STEEL_CONDUCTIVITY_RAMP' T=400.0 F=40.68 /
&RAMP ID='STEEL_CONDUCTIVITY_RAMP' T=500.0 F=37.35 /
&RAMP ID='STEEL_CONDUCTIVITY_RAMP' T=600.0 F=34.02 /
&RAMP ID='STEEL_CONDUCTIVITY_RAMP' T=700.0 F=30.69 /
&RAMP ID='STEEL_CONDUCTIVITY_RAMP' T=800.0 F=27.36 /
&RAMP ID='STEEL_CONDUCTIVITY_RAMP' T=900.0 F=27.3 /
&RAMP ID='STEEL_CONDUCTIVITY_RAMP' T=1000.0 F=27.3 /
&RAMP ID='STEEL_CONDUCTIVITY_RAMP' T=1100.0 F=27.3 /
&RAMP ID='STEEL_CONDUCTIVITY_RAMP' T=1200.0 F=27.3 /

# with StainlessSteel in heater geometry interactions that lead to cancellation
SURF ID='StainlessSteel' 
      RGB=88,86,102 
      BACKING='EXPOSED' 
      MATL_ID(1,1)='STEEL'
      THICKNESS(1)=0.002 
      MATL_MASS_FRACTION(1,1)=1.0 /

&SURF ID='StainlessSteel' RGB=88,86,102 /

&MATL ID = 'PMMA', DENSITY = 1139.241, CONDUCTIVITY_RAMP = 'k_PMMA',
      SPECIFIC_HEAT_RAMP = 'cp_PMMA', EMISSIVITY = 0.96, ABSORPTION_COEFFICIENT = 2870 /

&RAMP ID='k_PMMA', T= 20., F=0.160 /
&RAMP ID='k_PMMA', T=122., F=0.160 /
&RAMP ID='k_PMMA', T=500., F=0.015 /

&RAMP ID='cp_PMMA', T= 20., F=1.05 /
&RAMP ID='cp_PMMA', T=122., F=1.90 /
&RAMP ID='cp_PMMA', T=500., F=3.22 /

MATL ID            = 'PROMATECT'
      EMISSIVITY    = 0.9
      DENSITY       = 450.
      SPECIFIC_HEAT = 0.95
      CONDUCTIVITY_RAMP = 'k_PROMAT LS' /

RAMP ID='k_PROMAT LS', T= 20., F=0.08 /
RAMP ID='k_PROMAT LS', T=200., F=0.10 /
RAMP ID='k_PROMAT LS', T=400., F=0.11 /

&MATL ID = 'Backing', DENSITY = 340, CONDUCTIVITY_RAMP = 'cond_fb', SPECIFIC_HEAT = 1.1 /

&RAMP ID = 'cond_fb', T = 000., F = 0.0462 / extrapoliert (Exponentialfunktion)
&RAMP ID = 'cond_fb', T = 200., F = 0.0611 / extrapoliert (Exponentialfunktion)
&RAMP ID = 'cond_fb', T = 400., F = 0.082 /
&RAMP ID = 'cond_fb', T = 600., F = 0.105 /
&RAMP ID = 'cond_fb', T = 800., F = 0.140 /
&RAMP ID = 'cond_fb', T = 1000, F = 0.189 /

##################
#### Geometry ####
##################

*** Specimen ***
#inputs specific for SPyro

&SURF ID                      = 'PMMA_CN',
      FYI                     = 'Parameter from Cone_C5_PMMACN_h_rep99',
      RGB                     = 0,0,0 ,
      CELL_SIZE_FACTOR        = 1.0,
      STRETCH_FACTOR(1:1)     = 1.0,
      BACKING                 = 'EXPOSED',
      THICKNESS(1:2)          = 0.006, 0.042,
      MATL_ID(1,1:1)          = 'PMMA',
      MATL_ID(2,1:1)          = 'Backing',
      HRRPUA                  = 1.0,
      RAMP_Q                  = 'CONE_6_25', 'CONE_6_75', 'CONE_10_25', 'CONE_10_50', 'CONE_10_75',
      REFERENCE_HEAT_FLUX     = 25,75,25,50,75,
      REFERENCE_THICKNESS     = 0.006, 0.006, 0.01, 0.01, 0.01,
      IGNITION_TEMPERATURE    = 340.7745079335275,
      HEAT_OF_VAPORIZATION    = 2029.3588585067885 /

&SURF ID                      = 'PMMA_back',
      COLOR                   = 'BEIGE',
      BACKING                 = 'EXPOSED',
      THICKNESS(1:2)          = 0.042, 0.006,
      MATL_ID(1,1:1)          = 'Backing',
      MATL_ID(2,1:1)          = 'PMMA' /

&OBST XB = -0.05,0.05, -0.05,0.05, -0.04, 0.0, SURF_ID6='StainlessSteel', 'StainlessSteel','StainlessSteel', 'StainlessSteel', 'StainlessSteel','PMMA_CN', BNDF_OBST=.TRUE. /

&RAMP ID = 'CONE_6_25', T = 0.000, F = 0.000 / PMMA_CN_6mm_Horizontal
&RAMP ID = 'CONE_6_25', T = 0.100, F = 246.883 / PMMA_CN_6mm_Horizontal
&RAMP ID = 'CONE_6_25', T = 2.200, F = 266.927 / PMMA_CN_6mm_Horizontal
&RAMP ID = 'CONE_6_25', T = 6.700, F = 285.580 / PMMA_CN_6mm_Horizontal
&RAMP ID = 'CONE_6_25', T = 17.400, F = 309.266 / PMMA_CN_6mm_Horizontal
&RAMP ID = 'CONE_6_25', T = 27.300, F = 310.572 / PMMA_CN_6mm_Horizontal
&RAMP ID = 'CONE_6_25', T = 37.300, F = 317.844 / PMMA_CN_6mm_Horizontal
&RAMP ID = 'CONE_6_25', T = 43.100, F = 317.169 / PMMA_CN_6mm_Horizontal
&RAMP ID = 'CONE_6_25', T = 53.100, F = 325.748 / PMMA_CN_6mm_Horizontal
&RAMP ID = 'CONE_6_25', T = 63.100, F = 322.858 / PMMA_CN_6mm_Horizontal
&RAMP ID = 'CONE_6_25', T = 81.800, F = 336.410 / PMMA_CN_6mm_Horizontal
&RAMP ID = 'CONE_6_25', T = 106.600, F = 336.723 / PMMA_CN_6mm_Horizontal
&RAMP ID = 'CONE_6_25', T = 121.400, F = 344.066 / PMMA_CN_6mm_Horizontal
&RAMP ID = 'CONE_6_25', T = 146.500, F = 342.350 / PMMA_CN_6mm_Horizontal
&RAMP ID = 'CONE_6_25', T = 161.800, F = 346.623 / PMMA_CN_6mm_Horizontal
&RAMP ID = 'CONE_6_25', T = 172.600, F = 357.650 / PMMA_CN_6mm_Horizontal
&RAMP ID = 'CONE_6_25', T = 183.000, F = 357.003 / PMMA_CN_6mm_Horizontal
&RAMP ID = 'CONE_6_25', T = 192.000, F = 365.517 / PMMA_CN_6mm_Horizontal
&RAMP ID = 'CONE_6_25', T = 217.200, F = 375.024 / PMMA_CN_6mm_Horizontal
&RAMP ID = 'CONE_6_25', T = 236.200, F = 395.254 / PMMA_CN_6mm_Horizontal
&RAMP ID = 'CONE_6_25', T = 246.300, F = 397.512 / PMMA_CN_6mm_Horizontal
&RAMP ID = 'CONE_6_25', T = 256.900, F = 405.144 / PMMA_CN_6mm_Horizontal
&RAMP ID = 'CONE_6_25', T = 267.600, F = 403.744 / PMMA_CN_6mm_Horizontal
&RAMP ID = 'CONE_6_25', T = 276.500, F = 416.371 / PMMA_CN_6mm_Horizontal
&RAMP ID = 'CONE_6_25', T = 281.700, F = 418.655 / PMMA_CN_6mm_Horizontal
&RAMP ID = 'CONE_6_25', T = 291.300, F = 430.759 / PMMA_CN_6mm_Horizontal
&RAMP ID = 'CONE_6_25', T = 296.800, F = 430.349 / PMMA_CN_6mm_Horizontal
&RAMP ID = 'CONE_6_25', T = 306.800, F = 443.832 / PMMA_CN_6mm_Horizontal
&RAMP ID = 'CONE_6_25', T = 317.800, F = 444.769 / PMMA_CN_6mm_Horizontal
&RAMP ID = 'CONE_6_25', T = 326.800, F = 462.429 / PMMA_CN_6mm_Horizontal
&RAMP ID = 'CONE_6_25', T = 331.300, F = 463.766 / PMMA_CN_6mm_Horizontal
&RAMP ID = 'CONE_6_25', T = 337.600, F = 460.411 / PMMA_CN_6mm_Horizontal
&RAMP ID = 'CONE_6_25', T = 342.900, F = 463.524 / PMMA_CN_6mm_Horizontal
&RAMP ID = 'CONE_6_25', T = 356.800, F = 430.408 / PMMA_CN_6mm_Horizontal
&RAMP ID = 'CONE_6_25', T = 367.400, F = 424.086 / PMMA_CN_6mm_Horizontal
&RAMP ID = 'CONE_6_25', T = 377.900, F = 410.040 / PMMA_CN_6mm_Horizontal
&RAMP ID = 'CONE_6_25', T = 392.800, F = 368.676 / PMMA_CN_6mm_Horizontal
&RAMP ID = 'CONE_6_25', T = 406.200, F = 310.043 / PMMA_CN_6mm_Horizontal
&RAMP ID = 'CONE_6_25', T = 416.400, F = 254.169 / PMMA_CN_6mm_Horizontal
&RAMP ID = 'CONE_6_25', T = 423.200, F = 224.775 / PMMA_CN_6mm_Horizontal
&RAMP ID = 'CONE_6_25', T = 432.000, F = 195.068 / PMMA_CN_6mm_Horizontal
&RAMP ID = 'CONE_6_25', T = 442.700, F = 168.215 / PMMA_CN_6mm_Horizontal
&RAMP ID = 'CONE_6_25', T = 461.800, F = 137.782 / PMMA_CN_6mm_Horizontal
&RAMP ID = 'CONE_6_25', T = 496.500, F = 109.148 / PMMA_CN_6mm_Horizontal
&RAMP ID = 'CONE_6_25', T = 551.600, F = 85.486 / PMMA_CN_6mm_Horizontal
&RAMP ID = 'CONE_6_25', T = 676.900, F = 44.812 / PMMA_CN_6mm_Horizontal
&RAMP ID = 'CONE_6_25', T = 771.500, F = 25.405 / PMMA_CN_6mm_Horizontal
&RAMP ID = 'CONE_6_25', T = 772.500, F = 0.000 / PMMA_CN_6mm_Horizontal


&RAMP ID = 'CONE_6_50', T = 0.000, F = 0.000 / PMMA_CN_6mm_Horizontal
&RAMP ID = 'CONE_6_50', T = 0.100, F = 364.611 / PMMA_CN_6mm_Horizontal
&RAMP ID = 'CONE_6_50', T = 2.900, F = 431.921 / PMMA_CN_6mm_Horizontal
&RAMP ID = 'CONE_6_50', T = 4.200, F = 454.830 / PMMA_CN_6mm_Horizontal
&RAMP ID = 'CONE_6_50', T = 8.900, F = 490.016 / PMMA_CN_6mm_Horizontal
&RAMP ID = 'CONE_6_50', T = 13.200, F = 509.902 / PMMA_CN_6mm_Horizontal
&RAMP ID = 'CONE_6_50', T = 19.000, F = 522.047 / PMMA_CN_6mm_Horizontal
&RAMP ID = 'CONE_6_50', T = 29.400, F = 525.120 / PMMA_CN_6mm_Horizontal
&RAMP ID = 'CONE_6_50', T = 39.200, F = 539.902 / PMMA_CN_6mm_Horizontal
&RAMP ID = 'CONE_6_50', T = 63.000, F = 543.462 / PMMA_CN_6mm_Horizontal
&RAMP ID = 'CONE_6_50', T = 69.100, F = 562.100 / PMMA_CN_6mm_Horizontal
&RAMP ID = 'CONE_6_50', T = 78.900, F = 561.001 / PMMA_CN_6mm_Horizontal
&RAMP ID = 'CONE_6_50', T = 84.200, F = 573.741 / PMMA_CN_6mm_Horizontal
&RAMP ID = 'CONE_6_50', T = 107.900, F = 577.653 / PMMA_CN_6mm_Horizontal
&RAMP ID = 'CONE_6_50', T = 118.200, F = 600.289 / PMMA_CN_6mm_Horizontal
&RAMP ID = 'CONE_6_50', T = 123.200, F = 595.828 / PMMA_CN_6mm_Horizontal
&RAMP ID = 'CONE_6_50', T = 133.000, F = 607.195 / PMMA_CN_6mm_Horizontal
&RAMP ID = 'CONE_6_50', T = 139.200, F = 602.368 / PMMA_CN_6mm_Horizontal
&RAMP ID = 'CONE_6_50', T = 144.200, F = 613.104 / PMMA_CN_6mm_Horizontal
&RAMP ID = 'CONE_6_50', T = 154.000, F = 643.094 / PMMA_CN_6mm_Horizontal
&RAMP ID = 'CONE_6_50', T = 163.900, F = 661.090 / PMMA_CN_6mm_Horizontal
&RAMP ID = 'CONE_6_50', T = 169.400, F = 679.398 / PMMA_CN_6mm_Horizontal
&RAMP ID = 'CONE_6_50', T = 183.400, F = 700.968 / PMMA_CN_6mm_Horizontal
&RAMP ID = 'CONE_6_50', T = 189.100, F = 722.418 / PMMA_CN_6mm_Horizontal
&RAMP ID = 'CONE_6_50', T = 192.700, F = 730.748 / PMMA_CN_6mm_Horizontal
&RAMP ID = 'CONE_6_50', T = 199.100, F = 733.612 / PMMA_CN_6mm_Horizontal
&RAMP ID = 'CONE_6_50', T = 202.500, F = 741.195 / PMMA_CN_6mm_Horizontal
&RAMP ID = 'CONE_6_50', T = 218.500, F = 784.833 / PMMA_CN_6mm_Horizontal
&RAMP ID = 'CONE_6_50', T = 224.400, F = 807.411 / PMMA_CN_6mm_Horizontal
&RAMP ID = 'CONE_6_50', T = 228.300, F = 805.632 / PMMA_CN_6mm_Horizontal
&RAMP ID = 'CONE_6_50', T = 232.800, F = 791.191 / PMMA_CN_6mm_Horizontal
&RAMP ID = 'CONE_6_50', T = 237.500, F = 754.503 / PMMA_CN_6mm_Horizontal
&RAMP ID = 'CONE_6_50', T = 238.700, F = 741.211 / PMMA_CN_6mm_Horizontal
&RAMP ID = 'CONE_6_50', T = 243.900, F = 639.719 / PMMA_CN_6mm_Horizontal
&RAMP ID = 'CONE_6_50', T = 247.800, F = 544.736 / PMMA_CN_6mm_Horizontal
&RAMP ID = 'CONE_6_50', T = 253.800, F = 405.653 / PMMA_CN_6mm_Horizontal
&RAMP ID = 'CONE_6_50', T = 259.400, F = 309.500 / PMMA_CN_6mm_Horizontal
&RAMP ID = 'CONE_6_50', T = 264.000, F = 263.864 / PMMA_CN_6mm_Horizontal
&RAMP ID = 'CONE_6_50', T = 268.300, F = 237.835 / PMMA_CN_6mm_Horizontal
&RAMP ID = 'CONE_6_50', T = 273.900, F = 214.832 / PMMA_CN_6mm_Horizontal
&RAMP ID = 'CONE_6_50', T = 278.200, F = 203.429 / PMMA_CN_6mm_Horizontal
&RAMP ID = 'CONE_6_50', T = 294.200, F = 186.317 / PMMA_CN_6mm_Horizontal
&RAMP ID = 'CONE_6_50', T = 337.500, F = 163.968 / PMMA_CN_6mm_Horizontal
&RAMP ID = 'CONE_6_50', T = 389.000, F = 91.170 / PMMA_CN_6mm_Horizontal
&RAMP ID = 'CONE_6_50', T = 409.500, F = 68.401 / PMMA_CN_6mm_Horizontal
&RAMP ID = 'CONE_6_50', T = 439.100, F = 43.333 / PMMA_CN_6mm_Horizontal
&RAMP ID = 'CONE_6_50', T = 504.400, F = 22.604 / PMMA_CN_6mm_Horizontal
&RAMP ID = 'CONE_6_50', T = 505.400, F = 0.000 / PMMA_CN_6mm_Horizontal


&RAMP ID = 'CONE_6_75', T = 0.000, F = 0.000 / PMMA_CN_6mm_Horizontal
&RAMP ID = 'CONE_6_75', T = 0.100, F = 425.501 / PMMA_CN_6mm_Horizontal
&RAMP ID = 'CONE_6_75', T = 2.900, F = 560.249 / PMMA_CN_6mm_Horizontal
&RAMP ID = 'CONE_6_75', T = 4.300, F = 603.564 / PMMA_CN_6mm_Horizontal
&RAMP ID = 'CONE_6_75', T = 8.300, F = 685.929 / PMMA_CN_6mm_Horizontal
&RAMP ID = 'CONE_6_75', T = 13.500, F = 735.265 / PMMA_CN_6mm_Horizontal
&RAMP ID = 'CONE_6_75', T = 22.800, F = 780.443 / PMMA_CN_6mm_Horizontal
&RAMP ID = 'CONE_6_75', T = 27.700, F = 788.620 / PMMA_CN_6mm_Horizontal
&RAMP ID = 'CONE_6_75', T = 43.300, F = 776.377 / PMMA_CN_6mm_Horizontal
&RAMP ID = 'CONE_6_75', T = 48.500, F = 796.906 / PMMA_CN_6mm_Horizontal
&RAMP ID = 'CONE_6_75', T = 59.500, F = 803.387 / PMMA_CN_6mm_Horizontal
&RAMP ID = 'CONE_6_75', T = 68.000, F = 816.011 / PMMA_CN_6mm_Horizontal
&RAMP ID = 'CONE_6_75', T = 73.300, F = 829.909 / PMMA_CN_6mm_Horizontal
&RAMP ID = 'CONE_6_75', T = 78.800, F = 819.631 / PMMA_CN_6mm_Horizontal
&RAMP ID = 'CONE_6_75', T = 82.500, F = 823.008 / PMMA_CN_6mm_Horizontal
&RAMP ID = 'CONE_6_75', T = 88.600, F = 851.703 / PMMA_CN_6mm_Horizontal
&RAMP ID = 'CONE_6_75', T = 98.400, F = 857.382 / PMMA_CN_6mm_Horizontal
&RAMP ID = 'CONE_6_75', T = 104.300, F = 883.938 / PMMA_CN_6mm_Horizontal
&RAMP ID = 'CONE_6_75', T = 117.600, F = 911.091 / PMMA_CN_6mm_Horizontal
&RAMP ID = 'CONE_6_75', T = 129.400, F = 951.900 / PMMA_CN_6mm_Horizontal
&RAMP ID = 'CONE_6_75', T = 133.500, F = 970.719 / PMMA_CN_6mm_Horizontal
&RAMP ID = 'CONE_6_75', T = 142.700, F = 1028.381 / PMMA_CN_6mm_Horizontal
&RAMP ID = 'CONE_6_75', T = 152.700, F = 1062.157 / PMMA_CN_6mm_Horizontal
&RAMP ID = 'CONE_6_75', T = 157.900, F = 1104.925 / PMMA_CN_6mm_Horizontal
&RAMP ID = 'CONE_6_75', T = 163.300, F = 1129.913 / PMMA_CN_6mm_Horizontal
&RAMP ID = 'CONE_6_75', T = 168.100, F = 1122.445 / PMMA_CN_6mm_Horizontal
&RAMP ID = 'CONE_6_75', T = 169.300, F = 1100.176 / PMMA_CN_6mm_Horizontal
&RAMP ID = 'CONE_6_75', T = 172.900, F = 1016.106 / PMMA_CN_6mm_Horizontal
&RAMP ID = 'CONE_6_75', T = 174.100, F = 968.902 / PMMA_CN_6mm_Horizontal
&RAMP ID = 'CONE_6_75', T = 178.100, F = 767.030 / PMMA_CN_6mm_Horizontal
&RAMP ID = 'CONE_6_75', T = 183.000, F = 541.291 / PMMA_CN_6mm_Horizontal
&RAMP ID = 'CONE_6_75', T = 184.300, F = 497.384 / PMMA_CN_6mm_Horizontal
&RAMP ID = 'CONE_6_75', T = 187.900, F = 399.117 / PMMA_CN_6mm_Horizontal
&RAMP ID = 'CONE_6_75', T = 189.300, F = 373.437 / PMMA_CN_6mm_Horizontal
&RAMP ID = 'CONE_6_75', T = 193.300, F = 324.517 / PMMA_CN_6mm_Horizontal
&RAMP ID = 'CONE_6_75', T = 198.200, F = 298.052 / PMMA_CN_6mm_Horizontal
&RAMP ID = 'CONE_6_75', T = 207.900, F = 286.436 / PMMA_CN_6mm_Horizontal
&RAMP ID = 'CONE_6_75', T = 222.700, F = 288.731 / PMMA_CN_6mm_Horizontal
&RAMP ID = 'CONE_6_75', T = 232.600, F = 271.773 / PMMA_CN_6mm_Horizontal
&RAMP ID = 'CONE_6_75', T = 238.600, F = 255.587 / PMMA_CN_6mm_Horizontal
&RAMP ID = 'CONE_6_75', T = 263.500, F = 169.288 / PMMA_CN_6mm_Horizontal
&RAMP ID = 'CONE_6_75', T = 284.400, F = 109.836 / PMMA_CN_6mm_Horizontal
&RAMP ID = 'CONE_6_75', T = 303.500, F = 68.460 / PMMA_CN_6mm_Horizontal
&RAMP ID = 'CONE_6_75', T = 318.000, F = 50.852 / PMMA_CN_6mm_Horizontal
&RAMP ID = 'CONE_6_75', T = 337.700, F = 37.326 / PMMA_CN_6mm_Horizontal
&RAMP ID = 'CONE_6_75', T = 363.500, F = 28.035 / PMMA_CN_6mm_Horizontal
&RAMP ID = 'CONE_6_75', T = 439.300, F = 12.487 / PMMA_CN_6mm_Horizontal
&RAMP ID = 'CONE_6_75', T = 440.300, F = 0.000 / PMMA_CN_6mm_Horizontal


&RAMP ID = 'CONE_10_25', T = 0.000, F = 0.000 / PMMA_CN_10mm_Horizontal
&RAMP ID = 'CONE_10_25', T = 0.100, F = 254.039 / PMMA_CN_10mm_Horizontal
&RAMP ID = 'CONE_10_25', T = 2.400, F = 261.974 / PMMA_CN_10mm_Horizontal
&RAMP ID = 'CONE_10_25', T = 12.700, F = 280.844 / PMMA_CN_10mm_Horizontal
&RAMP ID = 'CONE_10_25', T = 27.400, F = 293.025 / PMMA_CN_10mm_Horizontal
&RAMP ID = 'CONE_10_25', T = 65.700, F = 310.493 / PMMA_CN_10mm_Horizontal
&RAMP ID = 'CONE_10_25', T = 76.600, F = 305.973 / PMMA_CN_10mm_Horizontal
&RAMP ID = 'CONE_10_25', T = 97.000, F = 316.194 / PMMA_CN_10mm_Horizontal
&RAMP ID = 'CONE_10_25', T = 116.600, F = 305.495 / PMMA_CN_10mm_Horizontal
&RAMP ID = 'CONE_10_25', T = 127.600, F = 308.179 / PMMA_CN_10mm_Horizontal
&RAMP ID = 'CONE_10_25', T = 141.400, F = 304.210 / PMMA_CN_10mm_Horizontal
&RAMP ID = 'CONE_10_25', T = 171.500, F = 310.342 / PMMA_CN_10mm_Horizontal
&RAMP ID = 'CONE_10_25', T = 197.400, F = 302.939 / PMMA_CN_10mm_Horizontal
&RAMP ID = 'CONE_10_25', T = 217.400, F = 308.648 / PMMA_CN_10mm_Horizontal
&RAMP ID = 'CONE_10_25', T = 257.100, F = 306.413 / PMMA_CN_10mm_Horizontal
&RAMP ID = 'CONE_10_25', T = 306.400, F = 315.524 / PMMA_CN_10mm_Horizontal
&RAMP ID = 'CONE_10_25', T = 316.900, F = 321.868 / PMMA_CN_10mm_Horizontal
&RAMP ID = 'CONE_10_25', T = 327.300, F = 313.732 / PMMA_CN_10mm_Horizontal
&RAMP ID = 'CONE_10_25', T = 372.200, F = 327.833 / PMMA_CN_10mm_Horizontal
&RAMP ID = 'CONE_10_25', T = 412.300, F = 328.562 / PMMA_CN_10mm_Horizontal
&RAMP ID = 'CONE_10_25', T = 451.800, F = 349.969 / PMMA_CN_10mm_Horizontal
&RAMP ID = 'CONE_10_25', T = 461.500, F = 346.010 / PMMA_CN_10mm_Horizontal
&RAMP ID = 'CONE_10_25', T = 472.300, F = 356.089 / PMMA_CN_10mm_Horizontal
&RAMP ID = 'CONE_10_25', T = 497.200, F = 360.957 / PMMA_CN_10mm_Horizontal
&RAMP ID = 'CONE_10_25', T = 512.300, F = 376.154 / PMMA_CN_10mm_Horizontal
&RAMP ID = 'CONE_10_25', T = 527.400, F = 374.259 / PMMA_CN_10mm_Horizontal
&RAMP ID = 'CONE_10_25', T = 562.000, F = 392.861 / PMMA_CN_10mm_Horizontal
&RAMP ID = 'CONE_10_25', T = 567.600, F = 389.843 / PMMA_CN_10mm_Horizontal
&RAMP ID = 'CONE_10_25', T = 585.800, F = 408.431 / PMMA_CN_10mm_Horizontal
&RAMP ID = 'CONE_10_25', T = 595.800, F = 407.388 / PMMA_CN_10mm_Horizontal
&RAMP ID = 'CONE_10_25', T = 612.100, F = 417.713 / PMMA_CN_10mm_Horizontal
&RAMP ID = 'CONE_10_25', T = 622.400, F = 430.517 / PMMA_CN_10mm_Horizontal
&RAMP ID = 'CONE_10_25', T = 637.400, F = 436.815 / PMMA_CN_10mm_Horizontal
&RAMP ID = 'CONE_10_25', T = 656.200, F = 432.305 / PMMA_CN_10mm_Horizontal
&RAMP ID = 'CONE_10_25', T = 672.000, F = 441.168 / PMMA_CN_10mm_Horizontal
&RAMP ID = 'CONE_10_25', T = 687.200, F = 429.946 / PMMA_CN_10mm_Horizontal
&RAMP ID = 'CONE_10_25', T = 697.000, F = 407.279 / PMMA_CN_10mm_Horizontal
&RAMP ID = 'CONE_10_25', T = 706.900, F = 391.266 / PMMA_CN_10mm_Horizontal
&RAMP ID = 'CONE_10_25', T = 726.500, F = 337.616 / PMMA_CN_10mm_Horizontal
&RAMP ID = 'CONE_10_25', T = 762.500, F = 270.620 / PMMA_CN_10mm_Horizontal
&RAMP ID = 'CONE_10_25', T = 796.300, F = 232.390 / PMMA_CN_10mm_Horizontal
&RAMP ID = 'CONE_10_25', T = 871.800, F = 192.749 / PMMA_CN_10mm_Horizontal
&RAMP ID = 'CONE_10_25', T = 902.300, F = 157.633 / PMMA_CN_10mm_Horizontal
&RAMP ID = 'CONE_10_25', T = 932.000, F = 113.940 / PMMA_CN_10mm_Horizontal
&RAMP ID = 'CONE_10_25', T = 976.900, F = 65.952 / PMMA_CN_10mm_Horizontal
&RAMP ID = 'CONE_10_25', T = 1006.400, F = 46.096 / PMMA_CN_10mm_Horizontal
&RAMP ID = 'CONE_10_25', T = 1031.500, F = 35.939 / PMMA_CN_10mm_Horizontal
&RAMP ID = 'CONE_10_25', T = 1032.500, F = 0.000 / PMMA_CN_10mm_Horizontal


&RAMP ID = 'CONE_10_50', T = 0.000, F = 0.000 / PMMA_CN_10mm_Horizontal
&RAMP ID = 'CONE_10_50', T = 0.100, F = 413.090 / PMMA_CN_10mm_Horizontal
&RAMP ID = 'CONE_10_50', T = 2.900, F = 446.993 / PMMA_CN_10mm_Horizontal
&RAMP ID = 'CONE_10_50', T = 6.200, F = 470.487 / PMMA_CN_10mm_Horizontal
&RAMP ID = 'CONE_10_50', T = 10.500, F = 487.894 / PMMA_CN_10mm_Horizontal
&RAMP ID = 'CONE_10_50', T = 18.000, F = 503.162 / PMMA_CN_10mm_Horizontal
&RAMP ID = 'CONE_10_50', T = 42.500, F = 522.173 / PMMA_CN_10mm_Horizontal
&RAMP ID = 'CONE_10_50', T = 52.700, F = 520.622 / PMMA_CN_10mm_Horizontal
&RAMP ID = 'CONE_10_50', T = 62.600, F = 533.069 / PMMA_CN_10mm_Horizontal
&RAMP ID = 'CONE_10_50', T = 73.100, F = 529.120 / PMMA_CN_10mm_Horizontal
&RAMP ID = 'CONE_10_50', T = 83.100, F = 541.712 / PMMA_CN_10mm_Horizontal
&RAMP ID = 'CONE_10_50', T = 94.500, F = 524.080 / PMMA_CN_10mm_Horizontal
&RAMP ID = 'CONE_10_50', T = 102.500, F = 535.255 / PMMA_CN_10mm_Horizontal
&RAMP ID = 'CONE_10_50', T = 117.400, F = 541.005 / PMMA_CN_10mm_Horizontal
&RAMP ID = 'CONE_10_50', T = 158.000, F = 541.066 / PMMA_CN_10mm_Horizontal
&RAMP ID = 'CONE_10_50', T = 169.500, F = 550.020 / PMMA_CN_10mm_Horizontal
&RAMP ID = 'CONE_10_50', T = 177.800, F = 545.341 / PMMA_CN_10mm_Horizontal
&RAMP ID = 'CONE_10_50', T = 205.900, F = 574.688 / PMMA_CN_10mm_Horizontal
&RAMP ID = 'CONE_10_50', T = 217.800, F = 582.651 / PMMA_CN_10mm_Horizontal
&RAMP ID = 'CONE_10_50', T = 227.800, F = 579.941 / PMMA_CN_10mm_Horizontal
&RAMP ID = 'CONE_10_50', T = 237.700, F = 597.654 / PMMA_CN_10mm_Horizontal
&RAMP ID = 'CONE_10_50', T = 264.300, F = 595.969 / PMMA_CN_10mm_Horizontal
&RAMP ID = 'CONE_10_50', T = 271.300, F = 613.577 / PMMA_CN_10mm_Horizontal
&RAMP ID = 'CONE_10_50', T = 291.200, F = 618.935 / PMMA_CN_10mm_Horizontal
&RAMP ID = 'CONE_10_50', T = 305.600, F = 646.425 / PMMA_CN_10mm_Horizontal
&RAMP ID = 'CONE_10_50', T = 315.200, F = 641.408 / PMMA_CN_10mm_Horizontal
&RAMP ID = 'CONE_10_50', T = 322.400, F = 648.792 / PMMA_CN_10mm_Horizontal
&RAMP ID = 'CONE_10_50', T = 332.900, F = 687.505 / PMMA_CN_10mm_Horizontal
&RAMP ID = 'CONE_10_50', T = 345.900, F = 687.166 / PMMA_CN_10mm_Horizontal
&RAMP ID = 'CONE_10_50', T = 364.500, F = 741.006 / PMMA_CN_10mm_Horizontal
&RAMP ID = 'CONE_10_50', T = 375.000, F = 730.403 / PMMA_CN_10mm_Horizontal
&RAMP ID = 'CONE_10_50', T = 379.600, F = 734.193 / PMMA_CN_10mm_Horizontal
&RAMP ID = 'CONE_10_50', T = 390.800, F = 783.323 / PMMA_CN_10mm_Horizontal
&RAMP ID = 'CONE_10_50', T = 404.300, F = 803.242 / PMMA_CN_10mm_Horizontal
&RAMP ID = 'CONE_10_50', T = 407.800, F = 790.028 / PMMA_CN_10mm_Horizontal
&RAMP ID = 'CONE_10_50', T = 420.200, F = 688.642 / PMMA_CN_10mm_Horizontal
&RAMP ID = 'CONE_10_50', T = 433.300, F = 499.536 / PMMA_CN_10mm_Horizontal
&RAMP ID = 'CONE_10_50', T = 441.300, F = 402.906 / PMMA_CN_10mm_Horizontal
&RAMP ID = 'CONE_10_50', T = 445.200, F = 371.574 / PMMA_CN_10mm_Horizontal
&RAMP ID = 'CONE_10_50', T = 448.300, F = 356.070 / PMMA_CN_10mm_Horizontal
&RAMP ID = 'CONE_10_50', T = 459.900, F = 324.350 / PMMA_CN_10mm_Horizontal
&RAMP ID = 'CONE_10_50', T = 503.100, F = 291.239 / PMMA_CN_10mm_Horizontal
&RAMP ID = 'CONE_10_50', T = 530.600, F = 261.554 / PMMA_CN_10mm_Horizontal
&RAMP ID = 'CONE_10_50', T = 589.700, F = 126.655 / PMMA_CN_10mm_Horizontal
&RAMP ID = 'CONE_10_50', T = 609.900, F = 90.668 / PMMA_CN_10mm_Horizontal
&RAMP ID = 'CONE_10_50', T = 635.300, F = 63.377 / PMMA_CN_10mm_Horizontal
&RAMP ID = 'CONE_10_50', T = 717.700, F = 25.438 / PMMA_CN_10mm_Horizontal
&RAMP ID = 'CONE_10_50', T = 718.700, F = 0.000 / PMMA_CN_10mm_Horizontal


&RAMP ID = 'CONE_10_75', T = 0.000, F = 0.000 / PMMA_CN_10mm_Horizontal
&RAMP ID = 'CONE_10_75', T = 0.100, F = 558.790 / PMMA_CN_10mm_Horizontal
&RAMP ID = 'CONE_10_75', T = 1.600, F = 619.936 / PMMA_CN_10mm_Horizontal
&RAMP ID = 'CONE_10_75', T = 5.900, F = 705.120 / PMMA_CN_10mm_Horizontal
&RAMP ID = 'CONE_10_75', T = 11.600, F = 756.689 / PMMA_CN_10mm_Horizontal
&RAMP ID = 'CONE_10_75', T = 26.900, F = 800.784 / PMMA_CN_10mm_Horizontal
&RAMP ID = 'CONE_10_75', T = 36.300, F = 798.371 / PMMA_CN_10mm_Horizontal
&RAMP ID = 'CONE_10_75', T = 46.200, F = 814.469 / PMMA_CN_10mm_Horizontal
&RAMP ID = 'CONE_10_75', T = 57.100, F = 808.752 / PMMA_CN_10mm_Horizontal
&RAMP ID = 'CONE_10_75', T = 87.400, F = 844.643 / PMMA_CN_10mm_Horizontal
&RAMP ID = 'CONE_10_75', T = 101.700, F = 832.131 / PMMA_CN_10mm_Horizontal
&RAMP ID = 'CONE_10_75', T = 111.500, F = 863.977 / PMMA_CN_10mm_Horizontal
&RAMP ID = 'CONE_10_75', T = 115.900, F = 870.643 / PMMA_CN_10mm_Horizontal
&RAMP ID = 'CONE_10_75', T = 135.600, F = 852.899 / PMMA_CN_10mm_Horizontal
&RAMP ID = 'CONE_10_75', T = 145.800, F = 875.444 / PMMA_CN_10mm_Horizontal
&RAMP ID = 'CONE_10_75', T = 151.200, F = 870.749 / PMMA_CN_10mm_Horizontal
&RAMP ID = 'CONE_10_75', T = 160.900, F = 882.584 / PMMA_CN_10mm_Horizontal
&RAMP ID = 'CONE_10_75', T = 167.000, F = 879.887 / PMMA_CN_10mm_Horizontal
&RAMP ID = 'CONE_10_75', T = 172.400, F = 897.384 / PMMA_CN_10mm_Horizontal
&RAMP ID = 'CONE_10_75', T = 185.800, F = 901.696 / PMMA_CN_10mm_Horizontal
&RAMP ID = 'CONE_10_75', T = 196.000, F = 923.398 / PMMA_CN_10mm_Horizontal
&RAMP ID = 'CONE_10_75', T = 211.500, F = 908.123 / PMMA_CN_10mm_Horizontal
&RAMP ID = 'CONE_10_75', T = 216.400, F = 921.073 / PMMA_CN_10mm_Horizontal
&RAMP ID = 'CONE_10_75', T = 221.700, F = 950.222 / PMMA_CN_10mm_Horizontal
&RAMP ID = 'CONE_10_75', T = 232.100, F = 942.629 / PMMA_CN_10mm_Horizontal
&RAMP ID = 'CONE_10_75', T = 245.900, F = 1005.314 / PMMA_CN_10mm_Horizontal
&RAMP ID = 'CONE_10_75', T = 250.900, F = 1013.395 / PMMA_CN_10mm_Horizontal
&RAMP ID = 'CONE_10_75', T = 260.700, F = 1073.742 / PMMA_CN_10mm_Horizontal
&RAMP ID = 'CONE_10_75', T = 266.000, F = 1084.266 / PMMA_CN_10mm_Horizontal
&RAMP ID = 'CONE_10_75', T = 276.700, F = 1140.306 / PMMA_CN_10mm_Horizontal
&RAMP ID = 'CONE_10_75', T = 281.700, F = 1186.672 / PMMA_CN_10mm_Horizontal
&RAMP ID = 'CONE_10_75', T = 285.700, F = 1210.200 / PMMA_CN_10mm_Horizontal
&RAMP ID = 'CONE_10_75', T = 290.600, F = 1211.550 / PMMA_CN_10mm_Horizontal
&RAMP ID = 'CONE_10_75', T = 291.500, F = 1204.794 / PMMA_CN_10mm_Horizontal
&RAMP ID = 'CONE_10_75', T = 295.600, F = 1137.833 / PMMA_CN_10mm_Horizontal
&RAMP ID = 'CONE_10_75', T = 297.000, F = 1103.778 / PMMA_CN_10mm_Horizontal
&RAMP ID = 'CONE_10_75', T = 300.900, F = 951.635 / PMMA_CN_10mm_Horizontal
&RAMP ID = 'CONE_10_75', T = 306.400, F = 708.489 / PMMA_CN_10mm_Horizontal
&RAMP ID = 'CONE_10_75', T = 311.400, F = 541.581 / PMMA_CN_10mm_Horizontal
&RAMP ID = 'CONE_10_75', T = 317.200, F = 439.812 / PMMA_CN_10mm_Horizontal
&RAMP ID = 'CONE_10_75', T = 321.500, F = 401.844 / PMMA_CN_10mm_Horizontal
&RAMP ID = 'CONE_10_75', T = 325.800, F = 384.268 / PMMA_CN_10mm_Horizontal
&RAMP ID = 'CONE_10_75', T = 342.400, F = 359.849 / PMMA_CN_10mm_Horizontal
&RAMP ID = 'CONE_10_75', T = 375.700, F = 287.317 / PMMA_CN_10mm_Horizontal
&RAMP ID = 'CONE_10_75', T = 416.600, F = 128.195 / PMMA_CN_10mm_Horizontal
&RAMP ID = 'CONE_10_75', T = 442.500, F = 75.049 / PMMA_CN_10mm_Horizontal
&RAMP ID = 'CONE_10_75', T = 491.400, F = 35.460 / PMMA_CN_10mm_Horizontal
&RAMP ID = 'CONE_10_75', T = 492.400, F = 0.000 / PMMA_CN_10mm_Horizontal

*** Heater GEOM ***

<HeaterAssembly_LowRes>
! GEOM Vertices: 480 | Faces: 960
&GEOM ID='Heater_LowRes' SURF_ID='ConeHeater','StainlessSteel'
      VERTS=-0.000000,0.098469,0.027000,-0.000000,0.054995,0.092000,0.019210,
        0.096577,0.027000,0.010729,0.053938,0.092000,0.037682,0.090973,0.027000,
        0.021046,0.050809,0.092000,0.054706,0.081874,0.027000,0.030553,0.045727,
        0.092000,0.069628,0.069628,0.027000,0.038887,0.038887,0.092000,0.081874,
        0.054706,0.027000,0.045727,0.030553,0.092000,0.090973,0.037682,0.027000,
        0.050809,0.021046,0.092000,0.096577,0.019210,0.027000,0.053938,0.010729,
        0.092000,0.098469,-0.000000,0.027000,0.054995,0.000000,0.092000,
        0.096577,-0.019210,0.027000,0.053938,-0.010729,0.092000,0.090973,
        -0.037682,0.027000,0.050809,-0.021046,0.092000,0.081874,-0.054706,