&HEAD CHID='LFS_red_2mm', TITLE='Lateral Flame Spread | Geometry with imprinted heat flux (red) - gridsize 2mm - Parameter from Cone_C5_PMMACN_h_rep99' /

&TIME T_END=3600, WALL_INCREMENT=1 /

&MISC SIMULATION_MODE='LES', RESTART=.TRUE., BNDF_DEFAULT=.TRUE., SOLID_PHASE_ONLY=.FALSE. /
&DUMP NFRAMES=3600, DT_BNDF=10, DT_SLCF=10, DT_DEVC=1, DT_RESTART=300 /
&RADI NUMBER_RADIATION_ANGLES=100 /

***** Meshes ******************

&MESH IJK = 20,40,90, XB = -0.04,0.00,-0.07,0.01,-0.02,0.16, MULT_ID = 'MESH' /
&MULT ID = 'MESH', DX = 0.04, DY = 0.0, DZ = 0.0, I_UPPER = 23, J_UPPER = 0, K_UPPER = 0  /

***** Open Vents ******************

&VENT MB = 'XMIN',SURF_ID = 'OPEN'/
&VENT MB = 'XMAX',SURF_ID = 'OPEN'/
&VENT MB = 'YMIN',SURF_ID = 'OPEN'/
&VENT MB = 'YMAX',SURF_ID = 'OPEN'/
&VENT MB = 'ZMIN',SURF_ID = 'OPEN'/
&VENT MB = 'ZMAX',SURF_ID = 'OPEN'/

***** REAC Parameters *************

&SPEC ID='MMA', FORMULA='C5H8O2', SPECIFIC_HEAT=1.1, RADCAL_ID='MMA', SIGMALJ=4.701, EPSILONKLJ=205.78 /

&REAC FUEL='MMA', SOOT_YIELD=0.022, CO_YIELD=0.01, RADIATIVE_FRACTION=0.31 /  Tewarson, 4th SFPE Handbook, Table 3-4.16

##################
#### Outputs ####
##################

***** Boundaries *******************

&BNDF QUANTITY='RADIATIVE HEAT FLUX', CELL_CENTERED=.TRUE./
&BNDF QUANTITY='INCIDENT HEAT FLUX', CELL_CENTERED=.TRUE./
&BNDF QUANTITY='NET HEAT FLUX', CELL_CENTERED=.TRUE./
&BNDF QUANTITY='GAUGE HEAT FLUX', CELL_CENTERED=.TRUE./
&BNDF QUANTITY='CONVECTIVE HEAT FLUX', CELL_CENTERED=.TRUE./
&BNDF QUANTITY='HEAT TRANSFER COEFFICIENT', CELL_CENTERED=.TRUE./
&BNDF QUANTITY='WALL TEMPERATURE', CELL_CENTERED=.TRUE./
&BNDF QUANTITY='HRRPUA', CELL_CENTERED=.TRUE./
&BNDF QUANTITY='BURNING RATE', CELL_CENTERED=.TRUE./
&BNDF QUANTITY='WALL THICKNESS', CELL_CENTERED=.TRUE./
&BNDF QUANTITY='REFERENCE_HEAT_FLUX', CELL_CENTERED=.TRUE./

***** Slices *******************

&SLCF QUANTITY='HRRPUV', CELL_CENTERED=.TRUE., PBY=-0.001 /
&SLCF QUANTITY='TEMPERATURE', CELL_CENTERED=.TRUE., PBY=-0.001 /

***** Devices *******************

&DEVC XBP = 0.005, 0.765, 0.0, 0.0, 0.001, 0.001, IOR=-2, QUANTITY='HRRPUA', ID='HRRPUA_bot', POINTS=77, TIME_HISTORY=T /
&DEVC XBP = 0.005, 0.765, 0.0, 0.0, 0.033, 0.033, IOR=-2, QUANTITY='HRRPUA', ID='HRRPUA_33', POINTS=77, TIME_HISTORY=T /
&DEVC XBP = 0.005, 0.765, 0.0, 0.0, 0.065, 0.065, IOR=-2, QUANTITY='HRRPUA', ID='HRRPUA_mid', POINTS=77, TIME_HISTORY=T /
&DEVC XBP = 0.005, 0.765, 0.0, 0.0, 0.099, 0.099, IOR=-2, QUANTITY='HRRPUA', ID='HRRPUA_99', POINTS=77, TIME_HISTORY=T /
&DEVC XBP = 0.005, 0.765, 0.0, 0.0, 0.129, 0.129, IOR=-2, QUANTITY='HRRPUA', ID='HRRPUA_top', POINTS=77, TIME_HISTORY=T /

&DEVC XBP = 0.005, 0.765, 0.0, 0.0, 0.001, 0.001, IOR=-2, QUANTITY='GAUGE HEAT FLUX', ID='GHF_bot', POINTS=77, TIME_HISTORY=T /
&DEVC XBP = 0.005, 0.765, 0.0, 0.0, 0.065, 0.065, IOR=-2, QUANTITY='GAUGE HEAT FLUX', ID='GHF_mid', POINTS=77, TIME_HISTORY=T /
&DEVC XBP = 0.005, 0.765, 0.0, 0.0, 0.129, 0.129, IOR=-2, QUANTITY='GAUGE HEAT FLUX', ID='GHF_top', POINTS=77, TIME_HISTORY=T /

&DEVC XBP = 0.005, 0.765, 0.0, 0.0, 0.001, 0.001, IOR=-2, QUANTITY='WALL TEMPERATURE', ID='WT_bot', POINTS=77, TIME_HISTORY=T /
&DEVC XBP = 0.005, 0.765, 0.0, 0.0, 0.065, 0.065, IOR=-2, QUANTITY='WALL TEMPERATURE', ID='WT_mid', POINTS=77, TIME_HISTORY=T /
&DEVC XBP = 0.005, 0.765, 0.0, 0.0, 0.129, 0.129, IOR=-2, QUANTITY='WALL TEMPERATURE', ID='WT_top', POINTS=77, TIME_HISTORY=T /

&DEVC XBP = 0.005, 0.765, 0.0, 0.0, 0.001, 0.001, IOR=-2, QUANTITY='INSIDE WALL TEMPERATURE', ID='IWT_bot', DEPTH=0.006, POINTS=77, TIME_HISTORY=T /
&DEVC XBP = 0.005, 0.765, 0.0, 0.0, 0.065, 0.065, IOR=-2, QUANTITY='INSIDE WALL TEMPERATURE', ID='IWT_mid', DEPTH=0.006, POINTS=77, TIME_HISTORY=T /
&DEVC XBP = 0.005, 0.765, 0.0, 0.0, 0.129, 0.129, IOR=-2, QUANTITY='INSIDE WALL TEMPERATURE', ID='IWT_top', DEPTH=0.006, POINTS=77, TIME_HISTORY=T /

##################
#### Geometry ####
##################

***** Materials *******************

&MATL ID = 'PMMA_CN_6mm', DENSITY = 1139.2407407407409, CONDUCTIVITY_RAMP = 'k_PMMA',
      SPECIFIC_HEAT_RAMP = 'cp_PMMA', EMISSIVITY = 0.96, ABSORPTION_COEFFICIENT = 2870 /

&RAMP ID='k_PMMA', T= 20., F=0.160 /
&RAMP ID='k_PMMA', T=122., F=0.160 /
&RAMP ID='k_PMMA', T=500., F=0.015 /

&RAMP ID='cp_PMMA', T= 20., F=1.05 /
&RAMP ID='cp_PMMA', T=122., F=1.90 /
&RAMP ID='cp_PMMA', T=500., F=3.22 /

&MATL ID            = 'PROMATECT'
      EMISSIVITY    = 0.9
      DENSITY       = 450.
      SPECIFIC_HEAT = 0.95
      CONDUCTIVITY_RAMP = 'k_PROMAT LS' /

&RAMP ID='k_PROMAT LS', T= 20., F=0.08 /
&RAMP ID='k_PROMAT LS', T=200., F=0.10 /
&RAMP ID='k_PROMAT LS', T=400., F=0.11 /

&MATL ID            = 'STEEL'
      EMISSIVITY    = 0.9
      DENSITY       = 7800.
      SPECIFIC_HEAT = 0.465        
      CONDUCTIVITY  = 43. /

&SURF ID            = 'steelframe'
      MATL_ID       = 'STEEL'
      THICKNESS     = 0.003
      RGB           = 118,118,117 /

***** Sample with imprinted heat flux *******************
# with SPyro Parameters RAMP_Q and HEAT_OF_VAPORIZATION

&SURF ID                      = 'PMMA_back',
      COLOR                   = 'BEIGE',
      BACKING                 = 'EXPOSED',
      THICKNESS(1:2)          = 0.03, 0.006,
      MATL_ID(1,1:1)          = 'PROMATECT',
      MATL_ID(2,1:1)          = 'PMMA_CN_6mm' /

&SURF ID                      = 'PMMA_CN_front_5.0',
      FYI                     = 'Parameter from Cone_C5_PMMACN_h_rep99',
      RGB                     = 239.70382500000002,248.66529,33.48813,
      CELL_SIZE_FACTOR        = 1.0,
      STRETCH_FACTOR(1:1)     = 1.0,
      BACKING                 = 'EXPOSED',
      THICKNESS(1:2)          = 0.006, 0.03,
      MATL_ID(1,1:1)          = 'PMMA_CN_6mm',
      MATL_ID(2,1:1)          = 'PROMATECT',
      HRRPUA                  = 1.0,
      RAMP_Q                  = 'CONE_HRRPUA_25', 'CONE_HRRPUA_50', 'CONE_HRRPUA_75',
      EXTERNAL_FLUX           = 49.71480577721426,
      REFERENCE_HEAT_FLUX     = 25,50,75,
      IGNITION_TEMPERATURE    = 340.7745079335275,
      HEAT_OF_VAPORIZATION    = 2029.3588585067885 /
      
&OBST XB = 0.0, 0.01, 0.0, 0.05, 0.0, 0.13, SURF_ID6 = 'INERT','INERT','PMMA_CN_front_5.0','PMMA_back','INERT','INERT' /
    
&SURF ID                      = 'PMMA_CN_front_15.0',
      FYI                     = 'Parameter from Cone_C5_PMMACN_h_rep99',
      RGB                     = 241.38351,243.57345,38.333639999999995,
      CELL_SIZE_FACTOR        = 1.0,
      STRETCH_FACTOR(1:1)     = 1.0,
      BACKING                 = 'EXPOSED',
      THICKNESS(1:2)          = 0.006, 0.03,
      MATL_ID(1,1:1)          = 'PMMA_CN_6mm',
      MATL_ID(2,1:1)          = 'PROMATECT',
      HRRPUA                  = 1.0,
      RAMP_Q                  = 'CONE_HRRPUA_25', 'CONE_HRRPUA_50', 'CONE_HRRPUA_75',
      EXTERNAL_FLUX           = 50.06178749979817,
      REFERENCE_HEAT_FLUX     = 25,50,75,
      IGNITION_TEMPERATURE    = 340.7745079335275,
      HEAT_OF_VAPORIZATION    = 2029.3588585067885 /
      
&OBST XB = 0.01, 0.02, 0.0, 0.05, 0.0, 0.13, SURF_ID6 = 'INERT','INERT','PMMA_CN_front_15.0','PMMA_back','INERT','INERT' /
    
&SURF ID                      = 'PMMA_CN_front_25.0',
      FYI                     = 'Parameter from Cone_C5_PMMACN_h_rep99',
      RGB                     = 243.343185,238.40153999999998,38.994855,
      CELL_SIZE_FACTOR        = 1.0,
      STRETCH_FACTOR(1:1)     = 1.0,
      BACKING                 = 'EXPOSED',
      THICKNESS(1:2)          = 0.006, 0.03,
      MATL_ID(1,1:1)          = 'PMMA_CN_6mm',
      MATL_ID(2,1:1)          = 'PROMATECT',
      HRRPUA                  = 1.0,
      RAMP_Q                  = 'CONE_HRRPUA_25', 'CONE_HRRPUA_50', 'CONE_HRRPUA_75',
      EXTERNAL_FLUX           = 50.304398634241785,
      REFERENCE_HEAT_FLUX     = 25,50,75,
      IGNITION_TEMPERATURE    = 340.7745079335275,
      HEAT_OF_VAPORIZATION    = 2029.3588585067885 /
      
&OBST XB = 0.02, 0.03, 0.0, 0.05, 0.0, 0.13, SURF_ID6 = 'INERT','INERT','PMMA_CN_front_25.0','PMMA_back','INERT','INERT' /
    
&SURF ID                      = 'PMMA_CN_front_35.0',
      FYI                     = 'Parameter from Cone_C5_PMMACN_h_rep99',
      RGB                     = 245.825355,231.52725,38.08935,
      CELL_SIZE_FACTOR        = 1.0,
      STRETCH_FACTOR(1:1)     = 1.0,
      BACKING                 = 'EXPOSED',
      THICKNESS(1:2)          = 0.006, 0.03,
      MATL_ID(1,1:1)          = 'PMMA_CN_6mm',
      MATL_ID(2,1:1)          = 'PROMATECT',
      HRRPUA                  = 1.0,
      RAMP_Q                  = 'CONE_HRRPUA_25', 'CONE_HRRPUA_50', 'CONE_HRRPUA_75',
      EXTERNAL_FLUX           = 50.44960220572802,
      REFERENCE_HEAT_FLUX     = 25,50,75,
      IGNITION_TEMPERATURE    = 340.7745079335275,
      HEAT_OF_VAPORIZATION    = 2029.3588585067885 /
      
&OBST XB = 0.03, 0.04, 0.0, 0.05, 0.0, 0.13, SURF_ID6 = 'INERT','INERT','PMMA_CN_front_35.0','PMMA_back','INERT','INERT' /
    
&SURF ID                      = 'PMMA_CN_front_45.0',
      FYI                     = 'Parameter from Cone_C5_PMMACN_h_rep99',
      RGB                     = 247.485915,226.41348,37.209345,
      CELL_SIZE_FACTOR        = 1.0,
      STRETCH_FACTOR(1:1)     = 1.0,
      BACKING                 = 'EXPOSED',
      THICKNESS(1:2)          = 0.006, 0.03,
      MATL_ID(1,1:1)          = 'PMMA_CN_6mm',
      MATL_ID(2,1:1)          = 'PROMATECT',
      HRRPUA                  = 1.0,
      RAMP_Q                  = 'CONE_HRRPUA_25', 'CONE_HRRPUA_50', 'CONE_HRRPUA_75',
      EXTERNAL_FLUX           = 50.50436123943983,
      REFERENCE_HEAT_FLUX     = 25,50,75,
      IGNITION_TEMPERATURE    = 340.7745079335275,
      HEAT_OF_VAPORIZATION    = 2029.3588585067885 /
      
&OBST XB = 0.04, 0.05, 0.0, 0.05, 0.0, 0.13, SURF_ID6 = 'INERT','INERT','PMMA_CN_front_45.0','PMMA_back','INERT','INERT' /
    
&SURF ID                      = 'PMMA_CN_front_55.0',
      FYI                     = 'Parameter from Cone_C5_PMMACN_h_rep99',
      RGB                     = 248.947575,221.34408,36.554505,
      CELL_SIZE_FACTOR        = 1.0,
      STRETCH_FACTOR(1:1)     = 1.0,
      BACKING                 = 'EXPOSED',
      THICKNESS(1:2)          = 0.006, 0.03,
      MATL_ID(1,1:1)          = 'PMMA_CN_6mm',
      MATL_ID(2,1:1)          = 'PROMATECT',
      HRRPUA                  = 1.0,
      RAMP_Q                  = 'CONE_HRRPUA_25', 'CONE_HRRPUA_50', 'CONE_HRRPUA_75',
      EXTERNAL_FLUX           = 50.475638760560194,
      REFERENCE_HEAT_FLUX     = 25,50,75,
      IGNITION_TEMPERATURE    = 340.7745079335275,
      HEAT_OF_VAPORIZATION    = 2029.3588585067885 /
      
&OBST XB = 0.05, 0.06, 0.0, 0.05, 0.0, 0.13, SURF_ID6 = 'INERT','INERT','PMMA_CN_front_55.0','PMMA_back','INERT','INERT' /
    
&SURF ID                      = 'PMMA_CN_front_65.0',
      FYI                     = 'Parameter from Cone_C5_PMMACN_h_rep99',
      RGB                     = 250.576515,214.66206,36.287265000000005,
      CELL_SIZE_FACTOR        = 1.0,
      STRETCH_FACTOR(1:1)     = 1.0,
      BACKING                 = 'EXPOSED',
      THICKNESS(1:2)          = 0.006, 0.03,
      MATL_ID(1,1:1)          = 'PMMA_CN_6mm',
      MATL_ID(2,1:1)          = 'PROMATECT',
      HRRPUA                  = 1.0,
      RAMP_Q                  = 'CONE_HRRPUA_25', 'CONE_HRRPUA_50', 'CONE_HRRPUA_75',
      EXTERNAL_FLUX           = 50.370397794271994,
      REFERENCE_HEAT_FLUX     = 25,50,75,
      IGNITION_TEMPERATURE    = 340.7745079335275,
      HEAT_OF_VAPORIZATION    = 2029.3588585067885 /
      
&OBST XB = 0.06, 0.07, 0.0, 0.05, 0.0, 0.13, SURF_ID6 = 'INERT','INERT','PMMA_CN_front_65.0','PMMA_back','INERT','INERT' /
    
&SURF ID                      = 'PMMA_CN_front_75.0',
      FYI                     = 'Parameter from Cone_C5_PMMACN_h_rep99',
      RGB                     = 251.55979499999998,209.712255,36.607034999999996,
      CELL_SIZE_FACTOR        = 1.0,
      STRETCH_FACTOR(1:1)     = 1.0,
      BACKING                 = 'EXPOSED',
      THICKNESS(1:2)          = 0.006, 0.03,
      MATL_ID(1,1:1)          = 'PMMA_CN_6mm',
      MATL_ID(2,1:1)          = 'PROMATECT',
      HRRPUA                  = 1.0,
      RAMP_Q                  = 'CONE_HRRPUA_25', 'CONE_HRRPUA_50', 'CONE_HRRPUA_75',
      EXTERNAL_FLUX           = 50.19560136575823,
      REFERENCE_HEAT_FLUX     = 25,50,75,
      IGNITION_TEMPERATURE    = 340.7745079335275,
      HEAT_OF_VAPORIZATION    = 2029.3588585067885 /
      
&OBST XB = 0.07, 0.08, 0.0, 0.05, 0.0, 0.13, SURF_ID6 = 'INERT','INERT','PMMA_CN_front_75.0','PMMA_back','INERT','INERT' /
    
&SURF ID                      = 'PMMA_CN_front_85.0',
      FYI                     = 'Parameter from Cone_C5_PMMACN_h_rep99',
      RGB                     = 252.344685,204.817275,37.364895,
      CELL_SIZE_FACTOR        = 1.0,
      STRETCH_FACTOR(1:1)     = 1.0,
      BACKING                 = 'EXPOSED',
      THICKNESS(1:2)          = 0.006, 0.03,
      MATL_ID(1,1:1)          = 'PMMA_CN_6mm',
      MATL_ID(2,1:1)          = 'PROMATECT',
      HRRPUA                  = 1.0,
      RAMP_Q                  = 'CONE_HRRPUA_25', 'CONE_HRRPUA_50', 'CONE_HRRPUA_75',
      EXTERNAL_FLUX           = 49.958212500201824,
      REFERENCE_HEAT_FLUX     = 25,50,75,
      IGNITION_TEMPERATURE    = 340.7745079335275,
      HEAT_OF_VAPORIZATION    = 2029.3588585067885 /
      
&OBST XB = 0.08, 0.09, 0.0, 0.05, 0.0, 0.13, SURF_ID6 = 'INERT','INERT','PMMA_CN_front_85.0','PMMA_back','INERT','INERT' /
    
&SURF ID                      = 'PMMA_CN_front_95.0',
      FYI                     = 'Parameter from Cone_C5_PMMACN_h_rep99',
      RGB                     = 253.088775,198.381585,38.978024999999995,
      CELL_SIZE_FACTOR        = 1.0,
      STRETCH_FACTOR(1:1)     = 1.0,
      BACKING                 = 'EXPOSED',
      THICKNESS(1:2)          = 0.006, 0.03,
      MATL_ID(1,1:1)          = 'PMMA_CN_6mm',
      MATL_ID(2,1:1)          = 'PROMATECT',
      HRRPUA                  = 1.0,
      RAMP_Q                  = 'CONE_HRRPUA_25', 'CONE_HRRPUA_50', 'CONE_HRRPUA_75',
      EXTERNAL_FLUX           = 49.66519422278575,
      REFERENCE_HEAT_FLUX     = 25,50,75,
      IGNITION_TEMPERATURE    = 340.7745079335275,
      HEAT_OF_VAPORIZATION    = 2029.3588585067885 /
      
&OBST XB = 0.09, 0.1, 0.0, 0.05, 0.0, 0.13, SURF_ID6 = 'INERT','INERT','PMMA_CN_front_95.0','PMMA_back','INERT','INERT' /
    
&SURF ID                      = 'PMMA_CN_front_105.0',
      FYI                     = 'Parameter from Cone_C5_PMMACN_h_rep99',
      RGB                     = 253.432005,193.62252,40.56846,
      CELL_SIZE_FACTOR        = 1.0,
      STRETCH_FACTOR(1:1)     = 1.0,
      BACKING                 = 'EXPOSED',
      THICKNESS(1:2)          = 0.006, 0.03,
      MATL_ID(1,1:1)          = 'PMMA_CN_6mm',
      MATL_ID(2,1:1)          = 'PROMATECT',
      HRRPUA                  = 1.0,
      RAMP_Q                  = 'CONE_HRRPUA_25', 'CONE_HRRPUA_50', 'CONE_HRRPUA_75',
      EXTERNAL_FLUX           = 49.32323918054507,
      REFERENCE_HEAT_FLUX     = 25,50,75,
      IGNITION_TEMPERATURE    = 340.7745079335275,
      HEAT_OF_VAPORIZATION    = 2029.3588585067885 /
      
&OBST XB = 0.1, 0.11, 0.0, 0.05, 0.0, 0.13, SURF_ID6 = 'INERT','INERT','PMMA_CN_front_105.0','PMMA_back','INERT','INERT' /
    
&SURF ID                      = 'PMMA_CN_front_115.0',
      FYI                     = 'Parameter from Cone_C5_PMMACN_h_rep99',
      RGB                     = 253.613055,187.371705,43.079190000000004,
      CELL_SIZE_FACTOR        = 1.0,
      STRETCH_FACTOR(1:1)     = 1.0,
      BACKING                 = 'EXPOSED',
      THICKNESS(1:2)          = 0.006, 0.03,
      MATL_ID(1,1:1)          = 'PMMA_CN_6mm',
      MATL_ID(2,1:1)          = 'PROMATECT',
      HRRPUA                  = 1.0,
      RAMP_Q                  = 'CONE_HRRPUA_25', 'CONE_HRRPUA_50', 'CONE_HRRPUA_75',
      EXTERNAL_FLUX           = 48.932821323113885,
      REFERENCE_HEAT_FLUX     = 25,50,75,
      IGNITION_TEMPERATURE    = 340.7745079335275,
      HEAT_OF_VAPORIZATION    = 2029.3588585067885 /
      
&OBST XB = 0.11, 0.12, 0.0, 0.05, 0.0, 0.13, SURF_ID6 = 'INERT','INERT','PMMA_CN_front_115.0','PMMA_back','INERT','INERT' /
    
&SURF ID                      = 'PMMA_CN_front_125.0',
      FYI                     = 'Parameter from Cone_C5_PMMACN_h_rep99',
      RGB                     = 253.55262,182.753655,45.18804,
      CELL_SIZE_FACTOR        = 1.0,
      STRETCH_FACTOR(1:1)     = 1.0,
      BACKING                 = 'EXPOSED',
      THICKNESS(1:2)          = 0.006, 0.03,
      MATL_ID(1,1:1)          = 'PMMA_CN_6mm',
      MATL_ID(2,1:1)          = 'PROMATECT',
      HRRPUA                  = 1.0,
      RAMP_Q                  = 'CONE_HRRPUA_25', 'CONE_HRRPUA_50', 'CONE_HRRPUA_75',
      EXTERNAL_FLUX           = 48.48819590272533,
      REFERENCE_HEAT_FLUX     = 25,50,75,
      IGNITION_TEMPERATURE    = 340.7745079335275,
      HEAT_OF_VAPORIZATION    = 2029.3588585067885 /
      
&OBST XB = 0.12, 0.13, 0.0, 0.05, 0.0, 0.13, SURF_ID6 = 'INERT','INERT','PMMA_CN_front_125.0','PMMA_back','INERT','INERT' /
    
&SURF ID                      = 'PMMA_CN_front_135.0',
      FYI                     = 'Parameter from Cone_C5_PMMACN_h_rep99',
      RGB                     = 253.33128,178.19655,47.440455,
      CELL_SIZE_FACTOR        = 1.0,
      STRETCH_FACTOR(1:1)     = 1.0,
      BACKING                 = 'EXPOSED',
      THICKNESS(1:2)          = 0.006, 0.03,
      MATL_ID(1,1:1)          = 'PMMA_CN_6mm',
      MATL_ID(2,1:1)          = 'PROMATECT',
      HRRPUA                  = 1.0,
      RAMP_Q                  = 'CONE_HRRPUA_25', 'CONE_HRRPUA_50', 'CONE_HRRPUA_75',
      EXTERNAL_FLUX           = 47.983347793464674,
      REFERENCE_HEAT_FLUX     = 25,50,75,
      IGNITION_TEMPERATURE    = 340.7745079335275,
      HEAT_OF_VAPORIZATION    = 2029.3588585067885 /
      
&OBST XB = 0.13, 0.14, 0.0, 0.05, 0.0, 0.13, SURF_ID6 = 'INERT','INERT','PMMA_CN_front_135.0','PMMA_back','INERT','INERT' /
    
&SURF ID                      = 'PMMA_CN_front_145.0',
      FYI                     = 'Parameter from Cone_C5_PMMACN_h_rep99',
      RGB                     = 252.798075,172.215525,50.605515,
      CELL_SIZE_FACTOR        = 1.0,
      STRETCH_FACTOR(1:1)     = 1.0,
      BACKING                 = 'EXPOSED',
      THICKNESS(1:2)          = 0.006, 0.03,
      MATL_ID(1,1:1)          = 'PMMA_CN_6mm',
      MATL_ID(2,1:1)          = 'PROMATECT',
      HRRPUA                  = 1.0,
      RAMP_Q                  = 'CONE_HRRPUA_25', 'CONE_HRRPUA_50', 'CONE_HRRPUA_75',
      EXTERNAL_FLUX           = 47.41226186941717,
      REFERENCE_HEAT_FLUX     = 25,50,75,
      IGNITION_TEMPERATURE    = 340.7745079335275,
      HEAT_OF_VAPORIZATION    = 2029.3588585067885 /
      
&OBST XB = 0.14, 0.15, 0.0, 0.05, 0.0, 0.13, SURF_ID6 = 'INERT','INERT','PMMA_CN_front_145.0','PMMA_back','INERT','INERT' /
    
&SURF ID                      = 'PMMA_CN_front_155.0',
      FYI                     = 'Parameter from Cone_C5_PMMACN_h_rep99',
      RGB                     = 252.22764,167.80096500000002,53.0655,
      CELL_SIZE_FACTOR        = 1.0,
      STRETCH_FACTOR(1:1)     = 1.0,
      BACKING                 = 'EXPOSED',
      THICKNESS(1:2)          = 0.006, 0.03,
      MATL_ID(1,1:1)          = 'PMMA_CN_6mm',
      MATL_ID(2,1:1)          = 'PROMATECT',
      HRRPUA                  = 1.0,
      RAMP_Q                  = 'CONE_HRRPUA_25', 'CONE_HRRPUA_50', 'CONE_HRRPUA_75',
      EXTERNAL_FLUX           = 46.76920451725957,
      REFERENCE_HEAT_FLUX     = 25,50,75,
      IGNITION_TEMPERATURE    = 340.7745079335275,
      HEAT_OF_VAPORIZATION    = 2029.3588585067885 /
      
&OBST XB = 0.15, 0.16, 0.0, 0.05, 0.0, 0.13, SURF_ID6 = 'INERT','INERT','PMMA_CN_front_155.0','PMMA_back','INERT','INERT' /
    
&SURF ID                      = 'PMMA_CN_front_165.0',
      FYI                     = 'Parameter from Cone_C5_PMMACN_h_rep99',
      RGB                     = 251.517975,163.447095,55.57674,
      CELL_SIZE_FACTOR        = 1.0,
      STRETCH_FACTOR(1:1)     = 1.0,
      BACKING                 = 'EXPOSED',
      THICKNESS(1:2)          = 0.006, 0.03,
      MATL_ID(1,1:1)          = 'PMMA_CN_6mm',
      MATL_ID(2,1:1)          = 'PROMATECT',
      HRRPUA                  = 1.0,
      RAMP_Q                  = 'CONE_HRRPUA_25', 'CONE_HRRPUA_50', 'CONE_HRRPUA_75',
      EXTERNAL_FLUX           = 46.0549169132725,
      REFERENCE_HEAT_FLUX     = 25,50,75,
      IGNITION_TEMPERATURE    = 340.7745079335275,
      HEAT_OF_VAPORIZATION    = 2029.3588585067885 /
      
&OBST XB = 0.16, 0.17, 0.0, 0.05, 0.0, 0.13, SURF_ID6 = 'INERT','INERT','PMMA_CN_front_165.0','PMMA_back','INERT','INERT' /
    
&SURF ID                      = 'PMMA_CN_front_175.0',
      FYI                     = 'Parameter from Cone_C5_PMMACN_h_rep99',
      RGB                     = 250.36562999999998,157.73586,58.978184999999996,
      CELL_SIZE_FACTOR        = 1.0,
      STRETCH_FACTOR(1:1)     = 1.0,
      BACKING                 = 'EXPOSED',
      THICKNESS(1:2)          = 0.006, 0.03,
      MATL_ID(1,1:1)          = 'PMMA_CN_6mm',
      MATL_ID(2,1:1)          = 'PROMATECT',
      HRRPUA                  = 1.0,
      RAMP_Q                  = 'CONE_HRRPUA_25', 'CONE_HRRPUA_50', 'CONE_HRRPUA_75',
      EXTERNAL_FLUX           = 45.27661502334047,
      REFERENCE_HEAT_FLUX     = 25,50,75,
      IGNITION_TEMPERATURE    = 340.7745079335275,
      HEAT_OF_VAPORIZATION    = 2029.3588585067885 /
      
&OBST XB = 0.17, 0.18, 0.0, 0.05, 0.0, 0.13, SURF_ID6 = 'INERT','INERT','PMMA_CN_front_175.0','PMMA_back','INERT','INERT' /
    
&SURF ID                      = 'PMMA_CN_front_185.0',
      FYI                     = 'Parameter from Cone_C5_PMMACN_h_rep99',
      RGB                     = 249.35327999999998,153.523005,61.553684999999994,
      CELL_SIZE_FACTOR        = 1.0,
      STRETCH_FACTOR(1:1)     = 1.0,
      BACKING                 = 'EXPOSED',
      THICKNESS(1:2)          = 0.006, 0.03,
      MATL_ID(1,1:1)          = 'PMMA_CN_6mm',
      MATL_ID(2,1:1)          = 'PROMATECT',
      HRRPUA                  = 1.0,
      RAMP_Q                  = 'CONE_HRRPUA_25', 'CONE_HRRPUA_50', 'CONE_HRRPUA_75',
      EXTERNAL_FLUX           = 44.44179632593951,
      REFERENCE_HEAT_FLUX     = 25,50,75,
      IGNITION_TEMPERATURE    = 340.7745079335275,
      HEAT_OF_VAPORIZATION    = 2029.3588585067885 /
      
&OBST XB = 0.18, 0.19, 0.0, 0.05, 0.0, 0.13, SURF_ID6 = 'INERT','INERT','PMMA_CN_front_185.0','PMMA_back','INERT','INERT' /
    
&SURF ID                      = 'PMMA_CN_front_195.0',
      FYI                     = 'Parameter from Cone_C5_PMMACN_h_rep99',
      RGB                     = 247.817925,147.99741,65.007405,
      CELL_SIZE_FACTOR        = 1.0,
      STRETCH_FACTOR(1:1)     = 1.0,
      BACKING                 = 'EXPOSED',
      THICKNESS(1:2)          = 0.006, 0.03,
      MATL_ID(1,1:1)          = 'PMMA_CN_6mm',
      MATL_ID(2,1:1)          = 'PROMATECT',
      HRRPUA                  = 1.0,
      RAMP_Q                  = 'CONE_HRRPUA_25', 'CONE_HRRPUA_50', 'CONE_HRRPUA_75',
      EXTERNAL_FLUX           = 43.55795829954557,
      REFERENCE_HEAT_FLUX     = 25,50,75,
      IGNITION_TEMPERATURE    = 340.7745079335275,
      HEAT_OF_VAPORIZATION    = 2029.3588585067885 /
      
&OBST XB = 0.19, 0.2, 0.0, 0.05, 0.0, 0.13, SURF_ID6 = 'INERT','INERT','PMMA_CN_front_195.0','PMMA_back','INERT','INERT' /
    
&SURF ID                      = 'PMMA_CN_front_205.0',
      FYI                     = 'Parameter from Cone_C5_PMMACN_h_rep99',
      RGB                     = 246.53349,143.92098000000001,67.60509,
      CELL_SIZE_FACTOR        = 1.0,
      STRETCH_FACTOR(1:1)     = 1.0,
      BACKING                 = 'EXPOSED',
      THICKNESS(1:2)          = 0.006, 0.03,
      MATL_ID(1,1:1)          = 'PMMA_CN_6mm',
      MATL_ID(2,1:1)          = 'PROMATECT',
      HRRPUA                  = 1.0,
      RAMP_Q                  = 'CONE_HRRPUA_25', 'CONE_HRRPUA_50', 'CONE_HRRPUA_75',
      EXTERNAL_FLUX           = 42.63224275041666,
      REFERENCE_HEAT_FLUX     = 25,50,75,
      IGNITION_TEMPERATURE    = 340.7745079335275,
      HEAT_OF_VAPORIZATION    = 2029.3588585067885 /
      
&OBST XB = 0.2, 0.21, 0.0, 0.05, 0.0, 0.13, SURF_ID6 = 'INERT','INERT','PMMA_CN_front_205.0','PMMA_back','INERT','INERT' /
    
&SURF ID                      = 'PMMA_CN_front_215.0',
      FYI                     = 'Parameter from Cone_C5_PMMACN_h_rep99',
      RGB                     = 245.14068,139.90218000000002,70.202775,
      CELL_SIZE_FACTOR        = 1.0,
      STRETCH_FACTOR(1:1)     = 1.0,
      BACKING                 = 'EXPOSED',
      THICKNESS(1:2)          = 0.006, 0.03,
      MATL_ID(1,1:1)          = 'PMMA_CN_6mm',
      MATL_ID(2,1:1)          = 'PROMATECT',
      HRRPUA                  = 1.0,
      RAMP_Q                  = 'CONE_HRRPUA_25', 'CONE_HRRPUA_50', 'CONE_HRRPUA_75',
      EXTERNAL_FLUX           = 41.663611023796136,
      REFERENCE_HEAT_FLUX     = 25,50,75,
      IGNITION_TEMPERATURE    = 340.7745079335275,
      HEAT_OF_VAPORIZATION    = 2029.3588585067885 /
      
&OBST XB = 0.21, 0.22, 0.0, 0.05, 0.0, 0.13, SURF_ID6 = 'INERT','INERT','PMMA_CN_front_215.0','PMMA_back','INERT','INERT' /
    
&SURF ID                      = 'PMMA_CN_front_225.0',
      FYI                     = 'Parameter from Cone_C5_PMMACN_h_rep99',
      RGB                     = 243.12414,134.6298,73.665165,
      CELL_SIZE_FACTOR        = 1.0,
      STRETCH_FACTOR(1:1)     = 1.0,
      BACKING                 = 'EXPOSED',
      THICKNESS(1:2)          = 0.006, 0.03,
      MATL_ID(1,1:1)          = 'PMMA_CN_6mm',
      MATL_ID(2,1:1)          = 'PROMATECT',
      HRRPUA                  = 1.0,
      RAMP_Q                  = 'CONE_HRRPUA_25', 'CONE_HRRPUA_50', 'CONE_HRRPUA_75',
      EXTERNAL_FLUX           = 40.64284400391277,
      REFERENCE_HEAT_FLUX     = 25,50,75,
      IGNITION_TEMPERATURE    = 340.7745079335275,
      HEAT_OF_VAPORIZATION    = 2029.3588585067885 /
      
&OBST XB = 0.22, 0.23, 0.0, 0.05, 0.0, 0.13, SURF_ID6 = 'INERT','INERT','PMMA_CN_front_225.0','PMMA_back','INERT','INERT' /
    
&SURF ID                      = 'PMMA_CN_front_235.0',
      FYI                     = 'Parameter from Cone_C5_PMMACN_h_rep99',
      RGB                     = 241.498005,130.738245,76.257495,
      CELL_SIZE_FACTOR        = 1.0,
      STRETCH_FACTOR(1:1)     = 1.0,
      BACKING                 = 'EXPOSED',
      THICKNESS(1:2)          = 0.006, 0.03,
      MATL_ID(1,1:1)          = 'PMMA_CN_6mm',
      MATL_ID(2,1:1)          = 'PROMATECT',
      HRRPUA                  = 1.0,
      RAMP_Q                  = 'CONE_HRRPUA_25', 'CONE_HRRPUA_50', 'CONE_HRRPUA_75',
      EXTERNAL_FLUX           = 39.56036690277732,
      REFERENCE_HEAT_FLUX     = 25,50,75,
      IGNITION_TEMPERATURE    = 340.7745079335275,
      HEAT_OF_VAPORIZATION    = 2029.3588585067885 /
      
&OBST XB = 0.23, 0.24, 0.0, 0.05, 0.0, 0.13, SURF_ID6 = 'INERT','INERT','PMMA_CN_front_235.0','PMMA_back','INERT','INERT' /
    
&SURF ID                      = 'PMMA_CN_front_245.0',
      FYI                     = 'Parameter from Cone_C5_PMMACN_h_rep99',
      RGB                     = 239.77981499999999,126.89871,78.845235,
      CELL_SIZE_FACTOR        = 1.0,
      STRETCH_FACTOR(1:1)     = 1.0,
      BACKING                 = 'EXPOSED',
      THICKNESS(1:2)          = 0.006, 0.03,
      MATL_ID(1,1:1)          = 'PMMA_CN_6mm',
      MATL_ID(2,1:1)          = 'PROMATECT',
      HRRPUA                  = 1.0,
      RAMP_Q                  = 'CONE_HRRPUA_25', 'CONE_HRRPUA_50', 'CONE_HRRPUA_75',
      EXTERNAL_FLUX           = 38.406604932400526,
      REFERENCE_HEAT_FLUX     = 25,50,75,
      IGNITION_TEMPERATURE    = 340.7745079335275,
      HEAT_OF_VAPORIZATION    = 2029.3588585067885 /
      
&OBST XB = 0.24, 0.25, 0.0, 0.05, 0.0, 0.13, SURF_ID6 = 'INERT','INERT','PMMA_CN_front_245.0','PMMA_back','INERT','INERT' /
    
&SURF ID                      = 'PMMA_CN_front_255.0',
      FYI                     = 'Parameter from Cone_C5_PMMACN_h_rep99',
      RGB                     = 237.35349,121.856085,82.287735,
      CELL_SIZE_FACTOR        = 1.0,
      STRETCH_FACTOR(1:1)     = 1.0,
      BACKING                 = 'EXPOSED',
      THICKNESS(1:2)          = 0.006, 0.03,
      MATL_ID(1,1:1)          = 'PMMA_CN_6mm',
      MATL_ID(2,1:1)          = 'PROMATECT',
      HRRPUA                  = 1.0,
      RAMP_Q                  = 'CONE_HRRPUA_25', 'CONE_HRRPUA_50', 'CONE_HRRPUA_75',
      EXTERNAL_FLUX           = 37.172524481073786,
      REFERENCE_HEAT_FLUX     = 25,50,75,
      IGNITION_TEMPERATURE    = 340.7745079335275,
      HEAT_OF_VAPORIZATION    = 2029.3588585067885 /
      
&OBST XB = 0.25, 0.26, 0.0, 0.05, 0.0, 0.13, SURF_ID6 = 'INERT','INERT','PMMA_CN_front_255.0','PMMA_back','INERT','INERT' /
    
&SURF ID                      = 'PMMA_CN_front_265.0',
      FYI                     = 'Parameter from Cone_C5_PMMACN_h_rep99',
      RGB                     = 235.438185,118.129005,84.864255,
      CELL_SIZE_FACTOR        = 1.0,
      STRETCH_FACTOR(1:1)     = 1.0,
      BACKING                 = 'EXPOSED',
      THICKNESS(1:2)          = 0.006, 0.03,
      MATL_ID(1,1:1)          = 'PMMA_CN_6mm',
      MATL_ID(2,1:1)          = 'PROMATECT',
      HRRPUA                  = 1.0,
      RAMP_Q                  = 'CONE_HRRPUA_25', 'CONE_HRRPUA_50', 'CONE_HRRPUA_75',
      EXTERNAL_FLUX           = 35.86153899154296,
      REFERENCE_HEAT_FLUX     = 25,50,75,
      IGNITION_TEMPERATURE    = 340.7745079335275,
      HEAT_OF_VAPORIZATION    = 2029.3588585067885 /
      
&OBST XB = 0.26, 0.27, 0.0, 0.05, 0.0, 0.13, SURF_ID6 = 'INERT','INERT','PMMA_CN_front_265.0','PMMA_back','INERT','INERT' /
    
&SURF ID                      = 'PMMA_CN_front_275.0',
      FYI                     = 'Parameter from Cone_C5_PMMACN_h_rep99',
      RGB                     = 233.445105,114.445785,87.43695,
      CELL_SIZE_FACTOR        = 1.0,